  47

 N         1.805         -0.3609         -1.2986
 C         1.433         -1.1021         -0.144
 C         2.0774         -0.6643         1.1415
 C         3.5514         -0.758         1.0917
 C         4.4074         0.1353         0.503
 C         4.2005         1.3377         -0.1651
 C         5.2943         2.0337         -0.6559
 C         6.5739         1.5537         -0.4917
 C         6.7362         0.3628         0.1741
 C         5.6956         -0.3779         0.686
 N         5.626         -1.5371         1.3602
 C         4.3325         -1.7751         1.6102
 C         -0.0263         -1.152         0.0737
 O         -0.4609         -1.7739         1.0712
 N         -0.9316         -0.5266         -0.7996
 C         -2.3668         -0.6189         -0.5186
 C         -2.826         0.7975         -0.2384
 C         -4.2751         0.8782         0.0655
 C         -4.7678         0.7412         1.3464
 C         -6.1141         0.8209         1.6315
 C         -6.9899         1.0462         0.5901
 C         -6.55         1.1885         -0.6944
 C         -5.1928         1.102         -0.9383
 C         -3.0223         -1.2267         -1.6916
 O         -2.3654         -1.5554         -2.7105
 O         -4.3902         -1.4509         -1.6947
 H         1.3119         0.5568         -1.3466
 H         1.5931         -0.8652         -2.1861
 H         1.735         -2.1777         -0.3333
 H         1.729         -1.2878         2.005
 H         1.7446         0.3706         1.4054
 H         3.2336         1.7685         -0.3194
 H         5.1781         2.9816         -1.1866
 H         7.431         2.1173         -0.8867
 H         7.741         -0.0186         0.3059
 H         6.4441         -2.1157         1.6225
 H         3.9143         -2.6204         2.1341
 H         -0.6247         0.0016         -1.6415
 H         -2.5363         -1.2122         0.4098
 H         -2.6         1.456         -1.1281
 H         -2.223         1.2306         0.5849
 H         -4.0674         0.5621         2.1704
 H         -6.4886         0.7107         2.6457
 H         -8.0671         1.1145         0.7845
 H         -7.2287         1.3626         -1.4969
 H         -4.8805         1.2225         -1.9613
 H         -4.7931         -2.2757         -2.1595
