32

N   -1.5327567   1.9231950   -0.2626311
C   -1.3156291   0.7682018   0.5871426
C   -2.0870076   -0.4354291   0.0211710
C   -1.7930518   -1.7258804   0.7705979
C   -3.5819850   -0.1489165   0.0131836
C   0.1439539   0.4016214   0.8472768
O   0.5320335   0.0272337   1.9396410
N   0.9698446   0.4874690   -0.2201675
C   2.3753834   0.2163244   -0.1045166
C   2.6901264   -1.2777043   -0.1399736
C   3.0778098   0.9506904   -1.2188588
O   2.5222325   1.5408361   -2.1081635
O   4.4070149   0.8624834   -1.1204138
H   -1.3820672   1.7182497   -1.2412929
H   -0.9562552   2.7102267   -0.0026026
H   -1.7163861   0.9893342   1.5812871
H   -1.7513770   -0.5622832   -1.0179545
H   -0.7442446   -2.0161402   0.7042256
H   -2.0361380   -1.6232609   1.8304471
H   -2.3957036   -2.5390305   0.3618620
H   -3.8101103   0.7856193   -0.4974824
H   -3.9558030   -0.0720869   1.0379278
H   -4.1244629   -0.9588772   -0.4784039
H   0.6700545   0.9488420   -1.0635803
H   2.7369052   0.6183012   0.8478319
H   3.7593046   -1.4516157   -0.0250088
H   2.3560747   -1.7166906   -1.0814852
H   2.1629660   -1.7591636   0.6822009
H   4.7796739   1.3383509   -1.8729598
C   1.229382623982963   2.9141279804943756   -4.177609949911413
O   0.20679769275091386   2.6361717680238854   -3.723220906946902
O   2.2519675552150122   3.192084192964866   -4.631998992875924
