33

N   0.3785524   3.0530003   -0.4802231
C   -0.3146711   1.8922504   0.0585617
C   -0.7496330   1.0075104   -1.1202239
C   -1.5070761   -0.2267562   -0.7337996
C   -2.8581486   -0.1565806   -0.4095929
C   -3.5579556   -1.2921473   -0.0355209
C   -2.9123222   -2.5191233   0.0161210
C   -1.5670788   -2.5997127   -0.3091781
C   -0.8692350   -1.4609374   -0.6814552
C   0.6037982   1.0937388   0.9745452
O   0.1796875   0.4166941   1.8877886
N   1.9169443   1.1838672   0.6513361
C   2.8785137   0.3109703   1.2315113
C   3.2033851   -0.8752657   0.3534090
O   2.7085706   -1.1174206   -0.7118211
O   4.1421130   -1.6451746   0.9217683
H   -0.1437873   3.4538522   -1.2474865
H   0.4889919   3.7722521   0.2220652
H   -1.1975914   2.1335853   0.6610956
H   0.1435519   0.7381401   -1.6889586
H   -1.3734308   1.6286254   -1.7722544
H   -3.3691272   0.7998649   -0.4519941
H   -4.6098507   -1.2205031   0.2138814
H   -3.4574646   -3.4088301   0.3071245
H   -1.0559650   -3.5542603   -0.2717591
H   0.1847960   -1.5249170   -0.9275097
H   2.1367656   1.7458566   -0.1563568
H   2.4679745   -0.0709670   2.1695500
H   3.8105290   0.8289691   1.4705618
H   4.2992633   -2.3866811   0.3245144
C   -0.7989978760651282   -1.1456662621233844   3.9952052729771186
O   -1.873124803741505   -0.8083472382126673   3.746455962729978
O   0.275129051611249   -1.482985286034101   4.243954583224259
