41

N          4.37612        0.79146        1.75225
C          3.39841        0.96028        0.70841
C          3.65150       -0.05997       -0.42245
O          3.45591       -1.37535        0.04009
C          5.05717        0.04087       -0.96803
C          1.96555        0.80077        1.21514
O          1.70101        0.47083        2.35289
N          0.97855        1.01983        0.29987
C         -0.33986        0.51276        0.56557
C         -1.22971        0.76156       -0.65871
C         -2.64063        0.28117       -0.50189
C         -3.05718       -0.91658       -1.07386
C         -4.34685       -1.38777       -0.90558
C         -5.25351       -0.65557       -0.15005
O         -6.50605       -1.15344       -0.01081
C         -4.85665        0.54634        0.42503
C         -3.56240        1.00351        0.24619
C         -0.26618       -0.97721        0.86948
O          0.51599       -1.73610        0.35327
O         -1.19375       -1.36365        1.73558
H          4.39884       -0.19303        1.99618
H          4.06122        1.26666        2.58843
H          3.49139        1.96414        0.27386
H          2.95071        0.15421       -1.24296
H          2.51005       -1.54224        0.14579
H          5.25343        1.04617       -1.34438
H          5.78268       -0.17588       -0.18575
H          5.18599       -0.67390       -1.78094
H          1.24742        1.09775       -0.66634
H         -0.76156        1.00798        1.44102
H         -0.76825        0.27014       -1.52067
H         -1.21152        1.83786       -0.84957
H         -2.35589       -1.49716       -1.66362
H         -4.66719       -2.31887       -1.35499
H         -7.02819       -0.55784        0.52969
H         -5.56225        1.12605        1.01141
H         -3.26761        1.94314        0.70093
H         -1.10631       -2.31881        1.84814
C          1.99023        1.79072        3.81359
O          3.11470        1.76296        4.06699
O          0.86576        1.81847        3.56018
