  33

 N         -0.7256         2.1049         -1.2018
 C         -0.4224         2.1279         0.202
 C         -1.6169         1.7484         1.0543
 C         -2.1115         0.3843         0.7518
 C         -3.0788         0.2054         -0.2223
 C         -3.5751         -1.0452         -0.5438
 C         -3.1207         -2.1677         0.0993
 C         -2.1597         -2.0146         1.0707
 C         -1.6601         -0.7498         1.3936
 C         0.7288         1.2607         0.5504
 O         1.0749         1.2123         1.7584
 N         1.4488         0.4953         -0.3899
 C         2.565         -0.3513         -0.082
 C         2.2917         -1.8105         -0.3675
 C         3.8034         0.0424         -0.7585
 O         3.7973         1.0409         -1.5193
 O         4.9969         -0.6404         -0.5991
 H         -0.0984         2.7221         -1.7501
 H         -0.8462         1.1633         -1.5953
 H         -0.186         3.1891         0.4645
 H         -1.271         1.8282         2.119
 H         -2.41         2.5229         0.9515
 H         -3.4448         1.073         -0.7347
 H         -4.3347         -1.1163         -1.3194
 H         -3.5286         -3.1396         -0.1736
 H         -1.794         -2.8982         1.5852
 H         -0.913         -0.6462         2.1512
 H         1.1358         0.5569         -1.3897
 H         2.7332         -0.2735         1.0309
 H         1.6974         -1.9623         -1.2884
 H         1.852         -2.3118         0.5163
 H         3.274         -2.2997         -0.5463
 H         5.8981         -0.2508         -0.8899
