31

N   2.6676111   0.7490113   0.9971706
C   2.0034309   1.2913978   -0.1689215
C   2.5810006   0.6826196   -1.4449351
S   4.3395407   1.0356149   -1.6991332
C   0.5155286   0.9710206   -0.1700415
O   -0.2540104   1.5684930   -0.9141109
N   0.1412815   -0.0153644   0.6497759
C   -1.2249628   -0.4463478   0.7419075
C   -1.7047939   -1.2771059   -0.4755532
C   -2.9720653   -0.7586173   -1.1395390
O   -3.9267226   -1.4804730   -1.3409902
N   -2.9234212   0.5446001   -1.4846162
C   -1.3715533   -1.2417938   2.0163321
O   -0.4576211   -1.5971574   2.7103250
O   -2.6501235   -1.5180142   2.2690850
H   2.4616957   1.3016784   1.8190812
H   3.6702296   0.7944403   0.8588147
H   2.0719215   2.3828841   -0.2567977
H   2.0543429   1.0987847   -2.3025449
H   2.4363357   -0.3981136   -1.4502526
H   4.8243980   -0.0461799   -1.0725812
H   0.8419587   -0.4496017   1.2371024
H   -1.8659241   0.4356079   0.8301721
H   -0.9042583   -1.2650309   -1.2174299
H   -1.8943148   -2.3137720   -0.2051546
H   -2.0666351   1.0781125   -1.3844703
H   -3.7120091   0.9318047   -1.9705706
H   -2.6808600   -2.0583978   3.0681761
C   -2.0116817195636987   2.9331543124362636   -2.6136081888248275
O   -1.138314472893562   3.5812976861186883   -2.9964251419439254
O   -2.8850489662338354   2.285010938753839   -2.230791235705729
