36

N   -1.4589262   2.4594758   0.3172411
C   -0.7861542   1.1834998   0.4285542
C   -1.3253473   0.2035647   -0.6167743
C   -2.8046290   -0.1331249   -0.4657981
C   -3.0892225   -0.8865487   0.8250721
C   -3.2758241   -0.9361230   -1.6693059
C   0.7194539   1.2910481   0.2212842
O   1.2199705   2.1291108   -0.5048462
N   1.4744976   0.3709324   0.8728878
C   2.8636118   0.2237319   0.5468189
C   3.4391593   -0.9327579   1.3672014
O   2.6607358   -2.0957751   1.2446832
C   3.0538418   -0.1211086   -0.9188573
O   2.4065989   -0.9592973   -1.4943630
O   4.0817138   0.5213097   -1.4694917
H   -1.1099739   2.9292650   -0.5116316
H   -1.2091988   3.0545279   1.0965716
H   -0.9722540   0.7811351   1.4289050
H   -0.7360063   -0.7204272   -0.5912996
H   -1.1496004   0.6470086   -1.6027657
H   -3.3516023   0.8137788   -0.4387039
H   -2.8388329   -0.2979348   1.7095381
H   -2.5173833   -1.8192056   0.8651895
H   -4.1474790   -1.1454396   0.8983375
H   -2.7386290   -1.8868357   -1.7386375
H   -3.1075969   -0.3915524   -2.6009817
H   -4.3419535   -1.1624713   -1.5996855
H   1.0267850   -0.4364645   1.2771216
H   3.4085396   1.1433831   0.7626797
H   4.4814555   -1.1015689   1.0721997
H   3.4269723   -0.6565084   2.4227381
H   2.5356799   -2.2769496   0.3058911
H   4.1616981   0.2083219   -2.3796728
C   2.3719013086606537   4.0578984640241895   -2.1760234973465495
O   1.3257769739982417   4.486706942626074   -2.4022007842395174
O   3.4180256433230656   3.629089985422305   -1.9498462104535816
