36

N   -2.1930971   -1.1554739   -1.8348771
C   -1.3472288   -0.5426296   -0.8322848
C   -1.5681515   -1.2264450   0.5213687
C   -2.9918476   -1.0687438   1.0252782
C   -3.3979153   0.3245159   1.4091075
O   -4.5022789   0.7808745   1.3036814
O   -2.3840040   1.0453851   1.9412988
C   0.1338431   -0.6743179   -1.1763619
O   0.5401252   -1.6308585   -1.8166984
N   0.9779999   0.2689971   -0.7081554
C   2.3995942   0.1303243   -0.9378117
C   2.9620365   1.4798162   -0.4785774
C   1.9875011   1.9094381   0.6118968
C   0.6384820   1.4516080   0.0742518
C   3.0414359   -1.0142859   -0.1754637
O   4.1099897   -1.4758422   -0.4623636
O   2.3298031   -1.4171460   0.8878211
H   -1.7207030   -1.9897498   -2.1691410
H   -2.2879335   -0.5459947   -2.6360418
H   -1.6186773   0.5131154   -0.7457664
H   -1.3533311   -2.2899923   0.3889671
H   -0.8537538   -0.8530559   1.2572052
H   -3.7023557   -1.4108506   0.2745499
H   -3.1402084   -1.6823904   1.9201150
H   -2.7668213   1.8964274   2.1879450
H   2.6084253   -0.0723570   -1.9880864
H   2.9293483   2.1781484   -1.3171524
H   3.9959479   1.4034432   -0.1459665
H   2.2098391   1.3855515   1.5434011
H   2.0130098   2.9801283   0.8111649
H   -0.0702972   1.2184599   0.8678487
H   0.1906655   2.2204485   -0.5660012
H   2.8303579   -2.1365482   1.2921483
C   -7.080025375618073   1.8460823470967327   1.057601433480678
O   -7.443587326006316   0.8577968216495737   0.588002212419218
O   -6.716463425229829   2.8343678725438917   1.527200654542138
