  28

 N         -2.6332         0.1392         1.3325
 C         -2.6542         -0.188         -0.0613
 C         -3.3308         0.8731         -0.8977
 O         -4.63         1.0211         -0.4774
 C         -1.2879         -0.4979         -0.5846
 O         -1.1067         -0.8079         -1.7893
 N         -0.131         -0.4589         0.2443
 C         1.1845         -0.7703         -0.3148
 C         2.125         0.3514         -0.0995
 C         2.3359         1.0925         1.0406
 N         3.2841         2.0144         0.7913
 C         3.6743         1.8742         -0.4699
 N         2.9714         0.866         -1.0097
 C         1.6636         -1.9972         0.3823
 O         0.9955         -2.583         1.268
 O         2.9167         -2.492         0.0102
 H         -1.9441         0.8654         1.5972
 H         -2.7056         -0.6592         1.974
 H         -3.2492         -1.1221         -0.1762
 H         -3.3274         0.5564         -1.9438
 H         -2.781         1.8473         -0.7999
 H         -4.886         0.4506         0.2871
 H         -0.2385         -0.2057         1.2514
 H         1.0712         -1.0054         -1.3715
 H         1.8109         0.9385         1.9733
 H         4.4273         2.477         -0.9561
 H         3.0537         0.5087         -2.0064
 H         3.3915         -3.0881         0.6769
