44

N   0.9398960   -2.0317140   0.1262692
C   0.1435901   -0.8698277   0.4595643
C   0.7603626   0.3986831   -0.1314244
C   2.1344426   0.6740639   0.3807939
C   3.3739713   0.1250946   -0.0936859
C   3.7115084   -0.7668603   -1.1170750
C   5.0402340   -1.0792416   -1.3168216
C   6.0468620   -0.5220917   -0.5150930
C   5.7455967   0.3593656   0.5036332
C   4.4054342   0.6753233   0.7015984
N   3.8145025   1.5089090   1.6126533
C   2.4575157   1.5091134   1.4134908
C   -1.2819297   -1.1799107   0.0150809
O   -1.7714130   -2.2728261   0.2290719
N   -1.9751175   -0.1855110   -0.5847518
C   -3.3416553   -0.3848706   -1.0047350
C   -4.3515927   0.0897996   -0.0117988
C   -5.1846791   -0.5775513   0.8423001
N   -5.9031451   0.3047487   1.5992864
C   -5.5162156   1.4930290   1.2130165
N   -4.5763997   1.4213477   0.2403369
C   -3.5522726   0.3793940   -2.2943265
O   -3.0478608   1.4521596   -2.5132861
O   -4.3918842   -0.2269978   -3.1262063
H   0.4235230   -2.8644837   0.3802899
H   1.8145123   -2.0221588   0.6325796
H   0.0514479   -0.7080169   1.5483896
H   0.7850830   0.3044362   -1.2213838
H   0.1306481   1.2577779   0.1203618
H   2.9361381   -1.2195686   -1.7219946
H   5.3147441   -1.7702177   -2.1042563
H   7.0803149   -0.7902025   -0.6970141
H   6.5250130   0.7878032   1.1225711
H   4.2978123   2.0536093   2.3007802
H   1.8123533   2.1194647   2.0263289
H   -1.5300512   0.6775193   -0.8436971
H   -3.4957792   -1.4519537   -1.1604743
H   -5.2864606   -1.6452470   0.9540763
H   -5.8814383   2.4330104   1.5968310
H   -4.1384216   2.1901191   -0.2380647
H   -4.5192900   0.3544801   -3.8872146
C   -1.8762577748823213   3.943884460921538   -3.0218660534002924
O   -1.3223524925737369   3.889542202395259   -2.012091396771938
O   -2.4301630571909056   3.9982267194478167   -4.031640710028647
