36

N   2.0141716   -2.1969538   -0.9105949
C   1.9153887   -1.0787742   0.0229512
C   3.0711397   -0.1312082   0.0277828
C   4.1361010   0.0238031   0.8755262
N   4.9822110   0.9948933   0.4155719
C   4.4394076   1.4277768   -0.6943067
N   3.2878666   0.7756239   -0.9766353
C   0.6523568   -0.3181848   -0.3601727
O   0.5389977   0.1557391   -1.4818595
N   -0.2886482   -0.2128803   0.5899613
C   -1.5149570   0.5222335   0.4032770
C   -2.7237607   -0.4112918   0.1858624
C   -2.5013123   -1.2811286   -1.0413563
C   -4.0241013   0.3695641   0.0679296
C   -1.7147164   1.3660046   1.6427627
O   -1.4684501   0.9806801   2.7545746
O   -2.2088707   2.5776977   1.3776779
H   2.9332408   -2.6144745   -0.8411052
H   1.9146068   -1.8414775   -1.8543133
H   1.8189257   -1.4839751   1.0334020
H   4.3349476   -0.5154595   1.7889607
H   4.8336130   2.2084973   -1.3262521
H   2.6305192   0.9474464   -1.7213393
H   -0.1155662   -0.5820894   1.5103738
H   -1.3883038   1.1621035   -0.4708603
H   -2.7811852   -1.0562547   1.0705427
H   -2.4290511   -0.6683214   -1.9424996
H   -3.3379170   -1.9709568   -1.1650499
H   -1.5880497   -1.8709677   -0.9650290
H   -4.2611843   0.9293541   0.9734106
H   -3.9784401   1.0794603   -0.7617108
H   -4.8516082   -0.3146813   -0.1246317
H   -2.3276716   3.0280018   2.2243492
C   0.27945934427381947   1.2407991414553279   -4.049988108217258
O   1.3223526017461036   0.8345568065443842   -4.327025684811034
O   -0.7634339131984648   1.6470414763662715   -3.772950531623483
