  34

 N         0.7716         0.8527         -1.4395
 C         0.7906         0.1296         -0.1828
 C         -0.1177         -1.0496         -0.286
 C         -1.526         -0.7026         -0.5702
 C         -2.4503         -0.2398         0.3199
 C         -2.4662         0.0486         1.6742
 C         -3.5865         0.5126         2.3044
 C         -4.7488         0.7077         1.5923
 C         -4.722         0.4153         0.2369
 C         -3.6173         -0.0476         -0.41
 N         -3.3753         -0.392         -1.701
 C         -2.1135         -0.7908         -1.8101
 C         2.1708         -0.295         0.1193
 O         2.3867         -0.9537         1.1584
 N         3.2217         0.0485         -0.7682
 C         4.5811         -0.3385         -0.5182
 C         5.0728         0.2131         0.7514
 O         4.3522         0.9358         1.5189
 O         6.365         -0.0264         1.1886
 H         0.0975         1.623         -1.4339
 H         0.6521         0.1885         -2.2186
 H         0.4615         0.8205         0.5942
 H         -0.1173         -1.6396         0.6519
 H         0.2742         -1.7535         -1.0679
 H         -1.5513         -0.1047         2.2435
 H         -3.6113         0.742         3.373
 H         -5.6457         1.0657         2.0377
 H         -5.6282         0.5657         -0.3254
 H         -4.0751         -0.3457         -2.4758
 H         -1.6067         -1.1327         -2.7172
 H         2.9926         0.6052         -1.6351
 H         4.6368         -1.4466         -0.5489
 H         5.2475         0.036         -1.3247
 H         6.8846         0.7137         1.6689
