48

N   1.1620734   1.7247453   1.2348316
C   1.1882897   0.5993350   0.3273749
C   2.1162962   -0.5048847   0.8683931
C   3.5667353   -0.1378095   0.7926475
C   4.3604797   -0.6068180   -0.2504970
C   5.6940717   -0.2547864   -0.3666553
C   6.2642409   0.5879087   0.5777002
O   7.5758646   0.9084218   0.4321439
C   5.4896643   1.0655709   1.6278329
C   4.1562395   0.7045728   1.7292812
C   -0.1956940   -0.0058207   0.1239334
O   -1.0269416   -0.0159767   1.0204607
N   -0.4338701   -0.5580023   -1.0800999
C   -1.6631872   -1.2567416   -1.3422175
C   -2.8897066   -0.3214005   -1.4082390
C   -4.0734197   -0.8478383   -0.6161467
C   -5.1837028   0.1750433   -0.4283848
C   -4.7467842   1.4468038   0.3051225
N   -4.0725966   1.2714801   1.5762982
C   -1.4824758   -2.0364429   -2.6166257
O   -0.5173675   -1.9714124   -3.3314918
O   -2.5389947   -2.8102077   -2.8806811
H   0.8075610   2.5486072   0.7677131
H   0.5030786   1.5127437   1.9772784
H   1.5835805   0.9322527   -0.6368812
H   1.9465636   -1.4243282   0.3016418
H   1.8151765   -0.7080003   1.8997349
H   3.9271852   -1.2712394   -0.9911575
H   6.3055239   -0.6284091   -1.1780455
H   7.8382518   1.4902460   1.1475789
H   5.9313971   1.7235674   2.3699062
H   3.5568240   1.0962259   2.5406748
H   0.2701024   -0.5808631   -1.8008704
H   -1.8387007   -1.9763923   -0.5347865
H   -2.5652479   0.6314983   -0.9930588
H   -3.1732180   -0.1312642   -2.4475199
H   -3.7079419   -1.1562962   0.3685631
H   -4.4714444   -1.7458637   -1.0958507
H   -5.6078271   0.4562352   -1.3995477
H   -5.9967846   -0.2957304   0.1347252
H   -4.0875846   2.0373278   -0.3376817
H   -5.6305694   2.0718684   0.4648127
H   -3.1714973   0.8214483   1.4639700
H   -4.6214316   0.6983860   2.2036209
H   -2.3620117   -3.2577603   -3.7174014
C   -2.930610997415645   -0.03923531319798512   3.073629436917466
O   -2.196707726389892   0.5255779177469787   3.7604925986368953
O   -3.6645142684413976   -0.6040485441429492   2.3867662751980365
