  20

 N         -2.1416         0.015         -1.2134
 C         -1.596         0.0958         0.1464
 C         -2.5722         -0.3829         1.165
 C         -0.3264         -0.6709         0.0956
 O         -0.3226         -1.8596         0.2938
 N         0.8439         0.0163         -0.2024
 C         2.1675         -0.5399         -0.3798
 C         3.1738         0.5136         -0.2537
 O         4.2161         0.3862         0.3652
 O         2.9349         1.7791         -0.8856
 H         -2.8595         0.6889         -1.4333
 H         -2.304         -0.961         -1.4935
 H         -1.3552         1.1566         0.3164
 H         -2.4066         -1.4385         1.4705
 H         -2.4893         0.2138         2.1194
 H         -3.6141         -0.264         0.7516
 H         0.7669         1.0885         -0.4022
 H         2.3255         -1.3169         0.4601
 H         2.2321         -1.12         -1.3019
 H         3.3268         2.5997         -0.3374
