37

N   1.0444554   -1.5971222   -0.4923080
C   0.9315286   -0.7325122   0.6718321
C   1.9582470   0.3942886   0.7496120
C   3.3714170   -0.1222501   0.9315972
S   4.5341821   1.2552902   0.9348833
C   6.0690942   0.3424833   1.1185617
C   -0.4765606   -0.1476155   0.8027215
O   -0.7386109   0.7132456   1.6257146
N   -1.3864887   -0.6737909   -0.0347949
C   -2.7645773   -0.2892948   0.0314754
C   -3.0015340   1.0451643   -0.7296733
O   -4.2518880   1.6088371   -0.4219491
C   -2.9263186   0.8878630   -2.2288247
C   -3.6015821   -1.4144629   -0.5200612
O   -3.1781607   -2.2898166   -1.2283207
O   -4.8805651   -1.3234146   -0.1525250
H   1.3340914   -1.0720768   -1.3075999
H   1.7207392   -2.3314342   -0.3483186
H   1.0439713   -1.3634725   1.5611523
H   1.6845640   1.0547868   1.5732514
H   1.8965026   0.9908834   -0.1678944
H   3.6452712   -0.8066542   0.1231928
H   3.4545442   -0.6655861   1.8780475
H   6.8781336   1.0720121   1.1304928
H   6.0873866   -0.2147917   2.0562292
H   6.2258828   -0.3400265   0.2818580
H   -1.1019180   -1.4409974   -0.6283023
H   -3.0358772   -0.1146037   1.0765248
H   -2.1895882   1.6965963   -0.3862780
H   -4.2646513   1.8442064   0.5075546
H   -3.7684103   0.2991412   -2.5977462
H   -2.9632481   1.8673261   -2.7046910
H   -2.0004148   0.3912301   -2.5199630
H   -5.3497172   -2.0478316   -0.5855510
C   -1.3403067420862365   2.6898758289437703   3.5153958037065487
O   -0.2407386330235033   2.692935535730448   3.86231021927123
O   -2.4398748511489696   2.6868161221570928   3.1684813881418674
