32

N   2.0609   -1.1897   -1.5976
C   1.4786   -0.7076   -0.3690
C   1.9135   0.6825   -0.0863
C   3.4263   0.6893   0.0367
C   3.9510   2.0306   0.3171
O   5.1786   2.2095   0.4514
O   3.0985   3.1039   0.4349
C   0.0137   -0.9086   -0.4171
O   -0.4384   -1.4191   -1.4750
N   -0.8423   -0.5553   0.6499
C   -2.2495   -0.6763   0.7278
C   -2.9829   -0.5312   -0.6271
C   -2.7742   0.7914   -1.2261
O   -1.8504   1.1290   -1.9762
O   -3.7131   1.7961   -0.9282
C   -2.7758   -1.7653   1.5376
O   -1.9232   -2.5261   2.1137
O   -4.0954   -2.0577   1.7451
H   2.7014   -2.0048   -1.4481
H   1.3756   -1.4607   -2.3157
H   1.8616   -1.3618   0.4463
H   1.6555   1.4232   -0.8519
H   1.5132   1.0580   0.8783
H   3.7553   0.0366   0.8972
H   3.9219   0.2745   -0.8492
H   3.3743   4.0046   0.8169
H   -0.3382   -0.1472   1.4949
H   -2.6130   0.3061   1.2503
H   -4.0956   -0.6305   -0.4210
H   -2.6862   -1.3292   -1.3296
H   -3.4739   2.7710   -0.8797
H   -4.4276   -3.0352   1.7435
