35

N   -2.1281   0.2546   1.0817
C   -1.7843   -1.0327   0.5941
C   -2.6258   -1.3092   -0.6503
C   -4.0752   -1.2395   -0.1968
C   -5.0217   -1.4935   -1.2820
O   -4.5969   -1.7637   -2.4259
O   -6.3788   -1.4381   -1.0598
C   -0.3236   -1.0547   0.2765
O   0.1437   -2.1662   -0.1431
N   0.4749   0.0705   0.4309
C   1.9362   0.0453   0.1181
C   2.1452   0.9196   -1.0627
C   3.4958   1.0440   -1.6031
C   4.5727   1.5996   -0.8023
O   5.6653   0.9490   -0.6974
O   4.5044   2.8074   -0.1322
C   2.5947   0.4198   1.3690
O   1.8425   0.7837   2.3539
O   3.9421   0.4349   1.6516
H   -2.4104   0.3745   2.0367
H   -1.9386   1.0503   0.4974
H   -2.0496   -1.7967   1.3487
H   -2.4152   -0.5654   -1.4428
H   -2.4322   -2.3099   -1.0795
H   -4.2182   -0.2305   0.2515
H   -4.1814   -1.9621   0.6513
H   -7.0036   -1.0561   -1.7860
H   0.0801   0.9656   0.7698
H   2.2031   -0.9840   -0.1434
H   1.5004   0.4712   -1.8862
H   1.6624   1.9373   -0.9235
H   3.8423   0.0741   -2.1062
H   3.3991   1.7126   -2.5419
H   5.2785   3.2158   0.3631
H   4.3000   1.2722   2.1302
