36

N   1.6591   -0.5276   -1.7182
C   1.9858   -0.8846   -0.3695
C   2.6659   0.2832   0.3099
C   3.9278   0.6993   -0.3654
C   4.5128   1.8431   0.3725
O   3.9359   2.2957   1.3906
O   5.6969   2.4527   -0.0177
C   0.7806   -1.2119   0.4409
O   0.9261   -1.5387   1.6456
N   -0.5382   -1.1756   -0.0743
C   -1.7206   -1.4912   0.7023
C   -2.7096   -0.3566   0.7350
C   -3.1979   0.0250   -0.6362
S   -4.3732   1.3908   -0.4685
C   -3.5813   2.8904   0.1320
C   -2.4009   -2.6665   0.1054
O   -1.9250   -3.2161   -0.9182
O   -3.5644   -3.2019   0.6336
H   2.1025   -1.1225   -2.4268
H   1.6618   0.4868   -1.9117
H   2.7082   -1.7234   -0.3994
H   1.9642   1.1200   0.3466
H   2.9221   -0.0635   1.3456
H   4.6962   -0.1279   -0.3156
H   3.8025   0.9209   -1.4428
H   6.2626   2.8374   0.7514
H   -0.6373   -0.9019   -1.0768
H   -1.4719   -1.7646   1.7471
H   -2.3481   0.5427   1.2355
H   -3.5952   -0.7201   1.3002
H   -3.7836   -0.8460   -1.0380
H   -2.3765   0.2615   -1.3415
H   -3.7649   2.9744   1.2229
H   -3.9836   3.8112   -0.3306
H   -2.4834   2.8907   -0.0099
H   -3.7553   -4.1851   0.4441
