34

N   -2.1973   0.4266   -1.9479
C   -1.4952   0.4260   -0.6784
C   -2.1697   -0.6184   0.1970
C   -3.6197   -0.1167   0.3084
C   -4.4700   -0.9717   1.1248
O   -4.0066   -1.9859   1.6881
N   -5.8327   -0.6577   1.2866
C   -0.0765   0.2080   -0.9211
O   0.3630   0.1454   -2.1201
N   0.9222   0.0515   0.0795
C   2.3347   -0.1534   -0.2590
C   3.0598   1.0378   0.3292
C   4.5115   0.9920   0.0653
O   5.2956   0.2737   0.7137
N   5.0507   1.8144   -0.9910
C   2.8189   -1.4524   0.2058
O   2.0386   -2.2192   0.8210
O   4.1045   -1.9267   0.0201
H   -2.5258   1.3572   -2.2295
H   -1.7065   -0.1186   -2.6797
H   -1.7054   1.4004   -0.1563
H   -1.7421   -0.5804   1.2020
H   -2.1938   -1.6244   -0.2694
H   -3.5392   0.9155   0.7694
H   -3.9684   0.0602   -0.7309
H   -6.1744   -0.1830   2.1382
H   -6.5030   -0.9073   0.5400
H   0.5933   0.0904   1.0675
H   2.4678   -0.1006   -1.3574
H   2.6480   1.9422   -0.1982
H   2.8886   1.1157   1.4276
H   4.5284   2.6535   -1.3551
H   5.9684   1.6082   -1.4249
H   4.3322   -2.9022   -0.1895
