39

N   2.0551   0.1905   1.2841
C   2.0913   0.6116   -0.1201
C   2.6590   -0.5315   -0.9239
C   4.0362   -0.9405   -0.5291
C   5.0187   0.1428   -0.6921
O   4.6843   1.2367   -1.1977
N   6.3714   -0.0594   -0.2676
C   0.6696   0.7922   -0.5806
O   0.4071   1.1512   -1.7557
N   -0.4083   0.5608   0.3033
C   -1.8237   0.7387   -0.1477
C   -2.4371   -0.6072   -0.0499
C   -2.4215   -1.0980   1.3781
C   -3.6629   -0.8841   -0.8152
C   -4.8841   -0.0976   -0.5545
C   -2.4172   1.8035   0.6790
O   -1.7357   2.3425   1.6339
O   -3.6816   2.3158   0.5376
H   2.9925   0.2285   1.7111
H   1.6117   -0.7396   1.3248
H   2.6487   1.5497   -0.1850
H   2.6061   -0.2047   -2.0011
H   1.9202   -1.3663   -0.8458
H   4.3271   -1.7778   -1.2274
H   3.9845   -1.3111   0.5203
H   6.9694   0.7694   -0.0092
H   6.7981   -1.0044   -0.2015
H   -0.2920   0.2692   1.2769
H   -1.7799   1.0834   -1.1955
H   -1.6373   -1.3001   -0.5511
H   -1.3877   -1.3893   1.6292
H   -3.0435   -2.0215   1.5011
H   -2.7137   -0.3129   2.1053
H   -3.9335   -1.9914   -0.7807
H   -3.3975   -0.7528   -1.9178
H   -5.7668   -0.7535   -0.8886
H   -5.1109   0.0658   0.5163
H   -5.0190   0.8041   -1.1918
H   -4.2971   2.4873   1.3450
