34

N   -1.6402   0.5329   0.9521
C   -1.4467   -0.8103   0.5606
C   -2.3588   -1.4032   -0.4928
C   -3.7970   -1.3219   -0.2266
C   -4.4763   -0.0478   -0.3866
O   -5.5480   -0.0670   -1.1388
N   -4.1866   1.2236   0.1089
C   -0.0587   -0.8500   -0.0889
O   0.2486   -1.7611   -0.8643
N   0.9010   0.1620   0.2065
C   2.2007   0.2764   -0.3489
C   3.0225   1.2848   0.3539
O   2.4131   2.5374   0.1905
C   4.4748   1.3039   -0.1585
C   2.8000   -1.0682   -0.5375
O   3.1410   -1.4722   -1.7181
O   3.0451   -1.9807   0.5160
H   -1.3152   1.2391   0.2483
H   -1.2935   0.7199   1.9054
H   -1.4446   -1.4769   1.4616
H   -2.0944   -0.8615   -1.4601
H   -2.0103   -2.4455   -0.6639
H   -3.9557   -1.6984   0.8645
H   -4.3011   -2.1210   -0.7992
H   -3.5240   1.8597   -0.4568
H   -4.5618   1.6450   0.9932
H   0.5334   0.8909   0.9183
H   2.0233   0.5824   -1.4781
H   3.0771   1.0477   1.4499
H   3.0046   3.0982   -0.4049
H   4.4797   1.7425   -1.1955
H   5.0214   1.9747   0.4952
H   4.8098   0.2433   -0.1634
H   2.8171   -2.9790   0.3234
