33

N   -3.9951   1.3379   -0.0310
C   -3.6594   0.0261   0.4790
C   -4.3685   -1.0834   -0.2411
C   -2.1837   -0.1707   0.2492
O   -1.7001   -1.2543   0.6270
N   -1.3958   0.8108   -0.3568
C   0.0194   0.5937   -0.5673
C   0.6639   0.5187   0.7756
C   2.1197   0.2975   0.6589
C   2.9643   1.3877   0.5127
C   4.3301   1.2064   0.4222
C   4.8726   -0.0594   0.4759
C   4.0398   -1.1382   0.6205
C   2.6633   -0.9464   0.7111
C   0.2240   -0.6333   -1.3586
O   -0.7373   -1.3766   -1.7614
O   1.4957   -1.0758   -1.7314
H   -4.9957   1.5224   0.1917
H   -3.8311   1.3488   -1.0534
H   -3.8911   -0.0486   1.5615
H   -5.4463   -0.8792   -0.4027
H   -4.2033   -2.0168   0.3358
H   -3.8439   -1.2415   -1.2163
H   -1.8595   1.7239   -0.6607
H   0.3851   1.4965   -1.1464
H   0.4678   1.4407   1.3858
H   0.2640   -0.3318   1.3777
H   2.5691   2.3817   0.4681
H   4.9983   2.0621   0.3071
H   5.9395   -0.2406   0.4081
H   4.4266   -2.1377   0.6661
H   2.0508   -1.8396   0.8289
H   1.6170   -1.6812   -2.5356
