31

N   5.3729   1.2901   -0.0916
C   4.5285   0.1502   -0.2563
C   3.0989   0.4546   0.0778
O   2.7760   1.6152   0.4532
N   2.0852   -0.5336   -0.0160
C   0.6845   -0.2688   0.3026
C   -0.1975   -0.5100   -0.8685
C   -1.6071   -0.2409   -0.5348
C   -2.5011   -1.2042   -0.1286
C   -3.7898   -0.8222   0.1624
C   -4.2276   0.4915   0.0642
O   -5.5456   0.8013   0.3754
C   -3.3338   1.4492   -0.3413
C   -2.0499   1.0636   -0.6303
C   0.3018   -1.1120   1.4377
O   1.1327   -1.9311   1.9034
O   -0.9305   -1.0792   2.0592
H   4.8165   2.1207   0.2202
H   6.1223   1.0507   0.5971
H   4.8212   -0.6922   0.4345
H   4.6032   -0.2529   -1.2783
H   2.3718   -1.4848   -0.3277
H   0.5419   0.7860   0.6221
H   0.0669   0.1050   -1.7577
H   -0.1565   -1.5944   -1.1617
H   -2.1923   -2.2426   -0.0471
H   -4.5162   -1.5783   0.4882
H   -5.8614   1.7544   0.3036
H   -3.6722   2.4726   -0.4187
H   -1.3698   1.8695   -0.9518
H   -1.3729   -1.9273   2.4440
