37

N   -0.6066   -2.0082   -2.5635
C   -0.9211   -0.7800   -1.8691
C   -2.4064   -0.6906   -1.6136
C   -2.7973   0.5511   -0.9019
C   -3.1409   1.7458   -1.5421
N   -3.4475   2.6796   -0.6211
C   -3.3036   2.0957   0.5856
N   -2.9135   0.8198   0.4070
C   -0.1252   -0.6704   -0.6041
O   -0.3086   0.3673   0.0655
N   0.7695   -1.6646   -0.1923
C   1.5934   -1.6650   0.9749
C   1.7572   -0.2845   1.6109
C   2.4622   0.5962   0.6224
C   2.6183   1.9674   1.1481
O   2.1767   2.2356   2.2850
N   3.2614   2.9380   0.3533
C   1.1940   -2.6472   1.9696
O   0.1843   -3.3761   1.6980
O   1.8254   -2.8468   3.1805
H   -1.1657   -2.7690   -2.1054
H   -0.7684   -1.9281   -3.5762
H   -0.6372   0.0603   -2.5343
H   -2.7776   -1.5522   -1.0218
H   -2.9454   -0.7186   -2.5755
H   -3.1568   1.8933   -2.6088
H   -3.7438   3.6744   -0.7724
H   -3.4614   2.5307   1.5714
H   0.8270   -2.5079   -0.8388
H   2.6671   -1.9510   0.6261
H   2.4604   -0.3898   2.4931
H   0.8378   0.1158   2.0361
H   2.1890   0.5142   -0.4205
H   3.5461   0.1776   0.6255
H   2.8466   3.9016   0.2440
H   4.1429   2.6957   -0.1208
H   1.2679   -3.1102   3.9854
