39

N   -2.1706   -0.5202   -1.6559
C   -1.8792   0.3746   -0.5691
C   -2.7713   -0.0151   0.5879
C   -2.5689   0.8459   1.8001
C   -4.2082   0.0897   0.0795
C   -4.5099   1.5081   -0.3708
C   -0.4454   0.3649   -0.1903
O   -0.0574   1.1071   0.7483
N   0.5246   -0.4400   -0.8301
C   1.9552   -0.4274   -0.4271
C   2.3850   -1.7990   -0.0631
C   3.8053   -1.8509   0.4019
S   4.1689   -0.9150   1.8751
C   4.0683   0.8488   1.7645
C   2.6750   0.0412   -1.6316
O   2.0505   0.2995   -2.7176
O   4.0219   0.2263   -1.6626
H   -1.9677   -1.5118   -1.3704
H   -1.4800   -0.3037   -2.4187
H   -2.1546   1.4026   -0.8829
H   -2.6148   -1.0718   0.8717
H   -1.8271   0.3939   2.4860
H   -3.5484   0.8546   2.3581
H   -2.3112   1.8894   1.5533
H   -4.2409   -0.5397   -0.8450
H   -4.9374   -0.3100   0.7830
H   -3.9940   2.2565   0.2672
H   -4.1756   1.7058   -1.4061
H   -5.6053   1.6724   -0.3130
H   0.2301   -1.0610   -1.6066
H   2.1232   0.2603   0.3874
H   1.7254   -2.2347   0.7489
H   2.2571   -2.5204   -0.9085
H   4.1167   -2.9504   0.5515
H   4.4709   -1.5217   -0.4154
H   4.9043   1.3023   2.3990
H   3.1494   1.2014   2.2926
H   4.2208   1.3052   0.7822
H   4.6150   0.0424   -2.4792
