36

N   1.9982   -2.1514   -0.7389
C   1.3980   -1.1083   0.0454
C   2.1738   0.1701   -0.0087
C   2.2612   0.6647   -1.4341
C   3.5811   0.0092   0.5106
C   3.5930   -0.4530   1.9564
C   0.0210   -0.8228   -0.4520
O   -0.4305   -1.4819   -1.4349
N   -0.7986   0.1682   0.1463
C   -2.1165   0.3984   -0.3766
C   -3.1150   0.0780   0.7321
O   -2.9399   -1.2401   1.0810
C   -4.5252   0.2352   0.1836
C   -2.2517   1.7896   -0.8243
O   -1.2891   2.5850   -0.7198
O   -3.4414   2.2418   -1.3669
H   2.9945   -2.2872   -0.5349
H   1.4382   -3.0230   -0.6384
H   1.2892   -1.4484   1.0990
H   1.6488   0.9389   0.5918
H   3.2401   1.1438   -1.6427
H   2.0518   -0.1226   -2.1758
H   1.4876   1.4682   -1.6015
H   4.0431   1.0383   0.5213
H   4.1604   -0.6647   -0.1237
H   4.6749   -0.5329   2.2440
H   3.1014   0.3731   2.5426
H   3.0733   -1.4219   2.0884
H   -0.4647   0.7280   0.9521
H   -2.3307   -0.2719   -1.2323
H   -3.0093   0.7677   1.5689
H   -3.3421   -1.8470   0.4094
H   -5.1557   -0.5428   0.6347
H   -4.4990   0.1105   -0.9284
H   -4.8888   1.2703   0.3920
H   -3.6315   3.2407   -1.4654
