46

N   -3.6098   1.4247   2.1682
C   -3.0293   0.4666   1.2210
C   -3.8867   0.5445   -0.0122
C   -3.4475   -0.3755   -1.1271
C   -5.2944   0.1439   0.3474
C   -5.9489   0.9990   1.3821
C   -1.6074   0.7309   0.9967
O   -1.1262   1.7970   1.5205
N   -0.7548   -0.1092   0.2493
C   0.6573   0.2914   0.1046
C   1.5393   -0.7330   0.7473
C   2.9851   -0.5123   0.6681
C   3.8474   -0.8877   -0.3306
C   3.7370   -1.6029   -1.5139
C   4.8296   -1.8356   -2.3139
C   6.0767   -1.3638   -1.9655
C   6.2136   -0.6517   -0.7954
C   5.0904   -0.4273   0.0032
N   5.0105   0.2148   1.1728
C   3.7485   0.1880   1.6151
C   1.0001   0.5261   -1.2904
O   0.1883   0.2428   -2.2407
O   2.2010   1.0673   -1.6939
H   -3.3785   1.1114   3.1248
H   -3.2701   2.3944   1.9604
H   -3.1418   -0.5319   1.6888
H   -3.9156   1.5693   -0.4139
H   -3.3605   -1.4259   -0.8071
H   -2.6082   -0.0050   -1.7255
H   -4.3204   -0.3831   -1.8498
H   -5.2102   -0.8969   0.7806
H   -5.9344   0.0087   -0.5531
H   -5.7878   0.5669   2.3929
H   -7.0527   0.9353   1.1810
H   -5.6928   2.0696   1.2998
H   -1.1049   -0.9891   -0.1842
H   0.8268   1.2519   0.6499
H   1.3125   -1.7716   0.3354
H   1.2794   -0.7319   1.8503
H   2.7438   -1.9592   -1.7567
H   4.6623   -2.4040   -3.2223
H   6.9390   -1.5569   -2.6142
H   7.1812   -0.2836   -0.5216
H   5.8091   0.6759   1.6808
H   3.3504   0.6175   2.5341
H   2.2534   1.5999   -2.5740
