36

N   0.9782   -1.2308   0.7697
C   1.0248   0.0675   0.2013
C   2.1187   0.1432   -0.7822
C   3.3895   -0.3184   -0.0556
C   4.5718   -0.3117   -0.9708
C   3.6114   0.3705   1.2354
C   -0.3685   0.4040   -0.3204
O   -0.5561   1.3627   -1.0451
N   -1.3863   -0.4744   0.1037
C   -2.8046   -0.4071   -0.1372
C   -3.2283   1.0658   0.0469
O   -4.5228   1.1753   -0.4081
C   -3.3263   1.3236   1.5678
C   -3.2891   -0.9968   -1.3463
O   -3.6011   -0.3220   -2.3849
O   -3.4387   -2.3894   -1.4605
H   0.9559   -1.9991   0.1458
H   0.5160   -1.3158   1.6509
H   1.1617   0.8931   0.9464
H   2.0054   -0.4393   -1.6937
H   2.3355   1.2055   -1.1026
H   3.2149   -1.4087   0.2113
H   5.4567   0.1351   -0.4739
H   4.8624   -1.3524   -1.2624
H   4.3478   0.2038   -1.9093
H   2.7069   0.5732   1.7917
H   4.1734   1.3297   1.0963
H   4.2112   -0.3102   1.9241
H   -1.0960   -1.2877   0.6799
H   -3.3089   -0.8683   0.7651
H   -2.5738   1.7640   -0.3970
H   -4.5985   2.0867   -0.8727
H   -4.4129   1.4148   1.8400
H   -2.8736   2.2822   1.8144
H   -2.8557   0.5259   2.1424
H   -3.4009   -2.8943   -2.3103
