34

N   -1.0395   -3.2020   0.2415
C   -0.3913   -2.1495   -0.4713
C   -1.3115   -1.0118   -0.8337
C   -1.9150   -0.3834   0.3903
C   -2.8239   0.7408   0.0264
C   -2.1509   1.8486   -0.7239
N   -3.1731   2.8657   -1.0032
C   0.7596   -1.6255   0.3036
O   1.0367   -2.1135   1.4217
N   1.5595   -0.5761   -0.1973
C   2.6677   -0.0926   0.5808
C   3.9205   -0.2966   -0.2589
C   2.4833   1.3697   0.8809
O   1.4585   1.9530   0.4483
O   3.4292   2.0509   1.6197
H   -0.8928   -3.1790   1.2731
H   -0.6954   -4.1273   -0.0866
H   0.0312   -2.5705   -1.4142
H   -0.7227   -0.2490   -1.3823
H   -2.1053   -1.3529   -1.5261
H   -2.5092   -1.1438   0.9331
H   -1.0906   0.0369   1.0129
H   -3.7252   0.3741   -0.5125
H   -3.2216   1.1950   0.9787
H   -1.4247   2.3375   -0.0294
H   -1.6828   1.5287   -1.6632
H   -2.7725   3.8188   -0.8719
H   -3.9624   2.7588   -0.3477
H   1.3438   -0.1619   -1.1196
H   2.7372   -0.6540   1.5276
H   3.6941   -0.6426   -1.2786
H   4.5497   -1.0703   0.2395
H   4.4711   0.6592   -0.3090
H   3.4682   3.0646   1.5522
