40

N   0.3628   1.5466   1.2178
C   0.7658   0.5998   0.2692
C   1.4315   -0.5778   0.9420
C   2.6324   -0.0813   1.7021
C   3.5915   0.5723   0.7409
N   4.0065   -0.3989   -0.2407
C   4.9175   -0.0254   -1.2931
N   5.0190   1.2344   -1.5477
N   5.6646   -1.0194   -2.0094
C   -0.4694   0.0436   -0.4081
O   -0.3934   -0.8280   -1.3085
N   -1.7575   0.4935   -0.0436
C   -2.9249   -0.0768   -0.7295
C   -3.8016   -0.6174   0.3595
C   -5.0243   -1.2564   -0.1141
O   -5.2909   -1.3938   -1.3150
N   -5.9413   -1.7379   0.8953
C   -3.5939   1.1092   -1.3548
O   -3.1198   2.2880   -1.2019
O   -4.7436   0.9861   -2.1198
H   -0.0497   1.2351   2.0877
H   0.3966   2.5259   0.9975
H   1.3680   1.0489   -0.5167
H   0.7359   -1.0762   1.6576
H   1.7045   -1.3363   0.2050
H   2.3505   0.6371   2.5022
H   3.1067   -0.9343   2.2348
H   3.1398   1.4883   0.3045
H   4.5059   0.9430   1.3036
H   3.6692   -1.3629   -0.2075
H   5.6421   1.6183   -2.2818
H   6.6996   -0.9390   -2.1312
H   5.1461   -1.8147   -2.4000
H   -1.9418   1.2045   0.6808
H   -2.6369   -0.8224   -1.4791
H   -4.0016   0.2289   1.0711
H   -3.1689   -1.3420   0.9508
H   -6.3138   -1.1194   1.6441
H   -6.2056   -2.7362   0.8285
H   -5.4776   1.6928   -1.9821
