40

N   0.6974   -1.7917   -0.7524
C   0.7617   -1.1806   0.5424
C   1.7246   -0.0347   0.5087
C   3.1167   -0.4533   0.1317
C   3.9843   0.7867   0.1342
C   5.4158   0.4625   -0.2367
N   6.1884   1.6811   -0.2164
C   -0.5487   -0.7069   1.0332
O   -0.5774   -0.1580   2.1634
N   -1.7569   -0.8310   0.3199
C   -2.9679   -0.3277   0.9099
C   -3.6377   0.7248   0.0648
C   -2.7533   1.9247   -0.1658
C   -4.1352   0.1640   -1.2501
C   -3.9196   -1.4510   1.0655
O   -3.6283   -2.6130   0.7123
O   -5.1670   -1.1393   1.6313
H   0.3157   -1.1986   -1.4926
H   0.3509   -2.7714   -0.7493
H   1.1435   -1.9286   1.2667
H   1.7791   0.3900   1.5407
H   1.3697   0.7771   -0.1769
H   3.5221   -1.1306   0.9071
H   3.1469   -0.9723   -0.8484
H   3.9610   1.2146   1.1513
H   3.5591   1.5477   -0.5568
H   5.4144   -0.0487   -1.2104
H   5.7855   -0.2524   0.5237
H   5.5913   2.4920   -0.5074
H   6.6978   1.8290   0.6671
H   -1.7802   -1.2711   -0.6036
H   -2.7830   0.1207   1.9114
H   -4.5295   1.0768   0.6248
H   -3.0256   2.3514   -1.1530
H   -2.9511   2.7334   0.5853
H   -1.6764   1.6605   -0.1560
H   -4.7394   -0.7277   -1.0858
H   -4.8097   0.9433   -1.6999
H   -3.2946   -0.0020   -1.9560
H   -5.8442   -1.8899   1.6443
