30

N   -2.3919   0.8775   1.0292
C   -1.7604   0.0185   0.1577
C   -2.9012   -0.0437   -0.9358
C   -4.0067   -0.4973   0.0076
C   -3.6907   0.2997   1.2615
C   -0.5098   0.3217   -0.5097
O   -0.3869   0.5497   -1.7052
N   0.6573   0.3023   0.3418
C   1.9953   0.3988   -0.2919
C   2.9266   0.3044   0.8783
C   4.3517   0.2065   0.6155
O   4.9862   -0.8117   1.0807
O   5.0818   1.1005   -0.0859
C   2.0742   -0.9680   -1.0035
O   1.6609   -1.9194   -0.3196
O   2.5431   -1.1338   -2.2514
H   -2.2440   1.8514   1.0259
H   -1.7682   -1.0483   0.5095
H   -3.0529   0.9798   -1.2925
H   -2.6509   -0.7743   -1.7042
H   -5.0013   -0.3083   -0.3801
H   -3.8085   -1.5741   0.1993
H   -3.6369   -0.4425   2.1108
H   -4.4220   1.0776   1.4710
H   0.4879   0.2721   1.3478
H   2.1008   1.1766   -0.9932
H   2.5469   -0.5316   1.5528
H   2.7263   1.2224   1.5522
H   6.0567   0.8995   -0.3441
H   2.0366   -1.8062   -2.8936
