21

N   -1.4738   -0.6594   1.7249
C   -1.5776   -0.8520   0.3184
C   -2.7420   -0.0478   -0.1956
O   -2.5368   1.3145   0.0825
C   -0.3202   -0.5569   -0.4103
O   -0.2988   -0.6936   -1.6596
N   0.8748   -0.1244   0.2222
C   2.0425   0.1337   -0.5931
C   3.1774   0.5738   0.2638
O   3.0895   0.6904   1.5113
O   4.3824   0.8631   -0.3772
H   -2.3397   -0.4246   2.2096
H   -0.8096   -1.2601   2.2146
H   -1.8066   -1.9257   0.1340
H   -2.9487   -0.2186   -1.2648
H   -3.6422   -0.3936   0.3563
H   -3.2132   1.8704   -0.3634
H   0.8884   -0.0010   1.2626
H   1.8760   0.9202   -1.3532
H   2.3758   -0.7750   -1.1392
H   5.0023   1.5666   0.0497
