31

N   -2.1550   1.5555   1.4968
C   -2.5563   0.5802   0.5319
C   -2.9785   1.1797   -0.7910
O   -1.9294   1.9019   -1.3600
C   -1.5529   -0.4519   0.2658
O   -1.8154   -1.3536   -0.5692
N   -0.2908   -0.4740   0.9162
C   0.7409   -1.4512   0.7074
C   2.0954   -0.8732   0.5508
C   2.2686   0.0354   -0.5828
C   1.3978   0.3979   -1.5693
N   2.0605   1.2745   -2.3626
C   3.2996   1.4674   -1.9092
N   3.4354   0.7177   -0.8267
C   0.6995   -2.4068   1.8739
O   -0.1233   -2.2728   2.7918
O   1.6142   -3.4333   1.8751
H   -2.4193   1.3052   2.4796
H   -2.5498   2.5078   1.3243
H   -3.4622   0.0585   0.9502
H   -3.8744   1.7919   -0.6797
H   -3.1746   0.3221   -1.4765
H   -1.8827   1.7563   -2.3377
H   -0.1422   0.3186   1.6066
H   0.4512   -2.0774   -0.1613
H   2.8478   -1.7103   0.4618
H   2.3748   -0.3810   1.5279
H   0.3826   0.0671   -1.7200
H   1.6180   1.7108   -3.2013
H   4.0427   2.1216   -2.3586
H   1.5776   -4.1845   2.5455
