33

N   2.9695   1.2659   0.4791
C   2.7377   0.2985   -0.5385
C   3.7197   -0.8361   -0.5601
O   4.9865   -0.2886   -0.7672
C   1.3289   -0.1892   -0.4316
O   0.9887   -1.0412   -1.2629
N   0.4771   0.3101   0.5601
C   -0.9081   -0.0344   0.7886
C   -1.5821   -0.7343   -0.3549
C   -3.0163   -1.0454   0.1573
C   -1.7589   0.2679   -1.4937
C   -2.6286   1.4453   -1.0921
C   -1.1373   -0.5970   2.1175
O   -0.1323   -0.7286   2.9073
O   -2.3257   -1.0230   2.6652
H   3.2206   2.1835   0.0974
H   3.5173   0.9504   1.2845
H   2.8123   0.8081   -1.5349
H   3.7020   -1.4493   0.3545
H   3.4964   -1.4379   -1.4785
H   5.2071   0.4142   -0.1228
H   0.9201   1.0308   1.2164
H   -1.4380   0.9931   0.7596
H   -1.1432   -1.6410   -0.7176
H   -3.6884   -1.1358   -0.7209
H   -2.9715   -2.0084   0.6728
H   -3.3775   -0.2543   0.8127
H   -2.1782   -0.2184   -2.3942
H   -0.7744   0.7094   -1.7226
H   -3.5366   1.1800   -0.5536
H   -2.9972   1.8720   -2.0806
H   -2.0441   2.2746   -0.6590
H   -2.4456   -1.3409   3.6126
