33

N   3.7255   -0.5566   0.1900
C   3.1417   0.2716   1.2002
C   3.6617   1.6977   1.0748
O   3.3621   2.2509   -0.1485
C   1.6606   0.2556   1.1953
O   1.0616   0.9612   2.0403
N   0.8872   -0.5017   0.3019
C   -0.5745   -0.5438   0.2652
C   -1.1111   -0.2270   -1.0684
C   -2.6062   -0.2424   -1.0970
C   -3.1132   0.1196   -2.5063
C   -3.1463   0.8179   -0.1423
C   -0.9045   -1.9355   0.6291
O   -0.0103   -2.8319   0.7789
O   -2.2017   -2.3314   0.8299
H   3.7330   -1.5622   0.4218
H   3.2732   -0.4317   -0.7347
H   3.4843   -0.0902   2.2116
H   3.1389   2.2938   1.8640
H   4.7444   1.7533   1.2707
H   4.1548   2.6949   -0.5231
H   1.3749   -1.0840   -0.3942
H   -0.9798   0.1105   1.0366
H   -0.7877   -1.0007   -1.8267
H   -0.8256   0.7742   -1.4633
H   -2.9913   -1.2358   -0.8288
H   -2.3889   -0.1593   -3.2759
H   -4.0825   -0.4053   -2.6198
H   -3.3448   1.2198   -2.5328
H   -2.9846   0.4528   0.8980
H   -4.2393   0.9848   -0.3064
H   -2.6297   1.7857   -0.2796
H   -2.4818   -3.3046   1.0142
