31

N   -2.6482   1.2006   -1.9176
C   -2.1410   0.9467   -0.5701
C   -3.0148   -0.0933   0.0523
O   -2.5983   -0.3892   1.3388
C   -3.1830   -1.3399   -0.7796
C   -0.7222   0.5591   -0.7062
O   -0.1702   0.4967   -1.8319
N   0.1006   0.2343   0.4234
C   1.4953   -0.1474   0.3065
C   2.2772   0.8581   1.1186
C   3.7258   0.6456   1.1271
O   4.2244   -0.2029   1.9220
N   4.5278   1.4095   0.2311
C   1.7379   -1.5187   0.7861
O   0.7255   -2.1615   1.2338
O   2.9294   -2.1848   0.8062
H   -3.6834   1.0820   -1.9442
H   -2.1993   0.4509   -2.5233
H   -2.2753   1.8823   0.0123
H   -4.0390   0.3704   0.1392
H   -3.3781   -0.5455   1.9148
H   -2.2100   -1.8212   -0.9278
H   -3.6831   -1.0497   -1.7092
H   -3.8658   -2.0117   -0.2063
H   -0.3717   0.2916   1.3487
H   1.8640   -0.0995   -0.7264
H   2.0389   1.8791   0.7042
H   1.8406   0.8589   2.1616
H   5.2372   0.8956   -0.3182
H   4.3725   2.4223   0.1651
H   3.0864   -2.9184   1.5040
