33

N   2.2399   -0.2799   -1.6156
C   2.3083   -0.6165   -0.2284
C   3.2457   0.3560   0.4491
O   3.3770   0.1055   1.8126
C   4.6175   0.1905   -0.1695
C   0.9831   -0.6673   0.4287
O   0.9419   -0.9564   1.6527
N   -0.2436   -0.4130   -0.2243
C   -1.5351   -0.4600   0.4056
C   -2.2452   0.8772   0.3631
C   -2.4863   1.3802   -1.0169
C   -3.5710   0.7112   1.0733
C   -2.3843   -1.5002   -0.2118
O   -1.9167   -2.1793   -1.1514
O   -3.6753   -1.7558   0.2047
H   1.8841   -1.1026   -2.1478
H   1.6268   0.5458   -1.8003
H   2.7602   -1.6306   -0.1395
H   2.9261   1.4130   0.2515
H   2.9484   0.8435   2.3505
H   5.3567   -0.2360   0.5563
H   4.6050   -0.5314   -1.0226
H   5.0269   1.1669   -0.5293
H   -0.2029   -0.1739   -1.2390
H   -1.4612   -0.7262   1.4948
H   -1.6587   1.6084   0.9669
H   -3.5769   1.5559   -1.2232
H   -2.0496   0.7745   -1.8161
H   -2.0200   2.4045   -1.1125
H   -3.5330   -0.1000   1.8483
H   -3.8750   1.6406   1.6044
H   -4.3987   0.4598   0.3826
H   -4.0142   -2.7045   0.1303
