41

N   -1.8091   2.0608   -1.5370
C   -1.4223   1.2628   -0.3885
C   -2.3646   0.0869   -0.3384
C   -2.0349   -0.7837   0.8210
C   -2.3160   -0.5245   2.1463
C   -2.9299   0.5274   2.7782
C   -3.0890   0.5498   4.1571
C   -2.6149   -0.5123   4.8764
C   -1.9907   -1.5956   4.2923
C   -1.8486   -1.5867   2.9201
N   -1.2949   -2.4689   2.0593
C   -1.3994   -2.0020   0.8022
C   -0.0419   0.7489   -0.5087
O   0.4344   -0.0173   0.3713
N   0.8200   1.0753   -1.5933
C   2.1649   0.6095   -1.7593
C   2.3884   -0.1998   -3.0061
C   3.8184   -0.6124   -3.0302
O   4.5957   -0.1777   -3.9460
N   4.3933   -1.4838   -2.0696
C   3.1554   1.7120   -1.7356
O   2.8304   2.9053   -1.5969
O   4.4839   1.3774   -1.8736
H   -1.8601   1.3971   -2.3689
H   -2.7743   2.4078   -1.4101
H   -1.5459   1.9297   0.4901
H   -2.3247   -0.5414   -1.2301
H   -3.4250   0.4014   -0.2319
H   -3.2918   1.3499   2.1646
H   -3.5807   1.4185   4.5594
H   -2.7453   -0.4886   5.9451
H   -1.6274   -2.4175   4.8783
H   -0.8614   -3.3648   2.3541
H   -1.0251   -2.5382   -0.0648
H   0.3921   1.7250   -2.3209
H   2.3570   -0.0709   -0.8825
H   2.2570   0.5273   -3.8707
H   1.7128   -1.0441   -3.1501
H   3.9651   -1.6628   -1.1253
H   5.2707   -1.9836   -2.2717
H   5.1784   2.0037   -2.2824
