40

N   -0.3236   -0.6675   1.3945
C   -0.4073   0.0128   0.1229
C   -1.0897   1.3554   0.1997
C   -2.4685   1.1107   0.7028
C   -3.4740   0.5863   -0.0961
C   -3.4829   0.2003   -1.4042
C   -4.6141   -0.3000   -1.9970
C   -5.7462   -0.3965   -1.2100
C   -5.7602   -0.0133   0.1104
C   -4.6090   0.4886   0.6883
N   -4.2653   0.9424   1.8971
C   -2.9863   1.3244   1.9411
C   0.9274   0.2199   -0.4877
O   0.9869   0.8375   -1.5784
N   2.0754   -0.2746   0.1607
C   3.3833   -0.0733   -0.4393
C   4.2862   0.5932   0.5749
C   5.6347   0.8053   -0.0342
O   5.8108   1.7210   -0.8936
O   6.7442   0.0396   0.2907
C   4.0269   -1.4008   -0.7386
O   3.3741   -2.4288   -0.4388
O   5.2636   -1.4659   -1.3103
H   0.0287   -1.6334   1.1970
H   0.3513   -0.2388   2.0442
H   -0.9893   -0.6891   -0.5419
H   -1.0985   1.7926   -0.7982
H   -0.5969   2.0348   0.9208
H   -2.5875   0.2738   -2.0399
H   -4.6196   -0.6057   -3.0351
H   -6.6461   -0.7859   -1.6496
H   -6.6446   -0.0860   0.7338
H   -4.9381   0.9872   2.7119
H   -2.4266   1.7323   2.7810
H   2.0575   -0.7931   1.0727
H   3.3109   0.5342   -1.3712
H   3.9264   1.5762   0.9088
H   4.3865   -0.1322   1.4238
H   7.6980   0.3201   0.0595
H   5.5016   -2.2814   -1.8727
