44

N   1.9178   1.3780   -0.5520
C   1.0540   0.2401   -0.3788
C   1.5185   -0.5518   0.8194
C   2.9147   -0.9921   0.5693
C   4.0864   -0.2847   0.7385
C   4.3773   0.9618   1.2009
C   5.7056   1.3870   1.2564
C   6.7612   0.5953   0.8601
C   6.4445   -0.6643   0.3955
C   5.1246   -1.0984   0.3358
N   4.6344   -2.2761   -0.0713
C   3.3042   -2.2290   0.0631
C   -0.3559   0.6741   -0.2445
O   -0.5886   1.9053   -0.3010
N   -1.4277   -0.2349   -0.0585
C   -2.7968   0.3282   0.0613
C   -3.6821   -0.3386   -0.9659
C   -5.0653   0.1745   -0.9706
C   -6.1030   -0.3042   -1.7644
N   -7.1901   0.4328   -1.4997
C   -6.8643   1.3335   -0.5862
N   -5.5722   1.1869   -0.2551
C   -3.2860   -0.0464   1.4317
O   -2.4908   -0.7406   2.1577
O   -4.5243   0.3195   1.9235
H   1.3859   2.2468   -0.3337
H   2.4237   1.4132   -1.4425
H   1.1772   -0.4295   -1.2666
H   1.4859   0.0636   1.7430
H   0.8952   -1.4775   0.9265
H   3.6062   1.6269   1.5400
H   5.9273   2.3725   1.6218
H   7.7907   0.9519   0.9133
H   7.2644   -1.3120   0.0754
H   5.2062   -3.0655   -0.4229
H   2.5802   -3.0000   -0.1676
H   -1.2582   -1.2594   -0.0080
H   -2.7710   1.4090   -0.0135
H   -3.7449   -1.4403   -0.7830
H   -3.2346   -0.2649   -1.9932
H   -6.0266   -1.1279   -2.4664
H   -8.1349   0.3176   -1.9389
H   -7.5375   2.0780   -0.1668
H   -4.9314   -0.2585   2.6549
