48

N   1.5240   -1.5870   -1.0321
C   1.5710   -0.6576   0.0835
C   2.0814   0.7001   -0.3526
C   3.4558   0.6009   -0.9170
C   4.6255   0.4430   -0.2034
C   4.8495   0.3382   1.1637
C   6.1289   0.1845   1.6363
C   7.2013   0.1321   0.7693
C   7.0005   0.2337   -0.5822
C   5.7217   0.3878   -1.0611
N   5.1855   0.5159   -2.3034
C   3.8510   0.6423   -2.2316
C   0.1814   -0.4502   0.5910
O   0.0492   0.3218   1.5712
N   -0.9440   -1.0761   0.0184
C   -2.2565   -0.8005   0.5970
C   -3.1244   -0.0860   -0.3867
C   -4.4681   0.2061   0.2144
C   -5.3507   0.9775   -0.7692
C   -6.6740   1.2232   -0.0809
N   -6.5192   1.9959   1.1359
C   -2.8192   -2.0827   1.0021
O   -2.1658   -3.1517   0.7183
O   -4.0296   -2.1840   1.6837
H   2.4869   -1.5943   -1.4754
H   1.4053   -2.5434   -0.6169
H   2.1696   -1.0270   0.9373
H   2.0721   1.3593   0.5368
H   1.4375   1.1620   -1.1150
H   3.9763   0.3841   1.8149
H   6.2515   0.1069   2.7127
H   8.1846   0.0104   1.1957
H   7.8289   0.1932   -1.2553
H   5.7286   0.5170   -3.1946
H   3.1571   0.7607   -3.0617
H   -0.8048   -1.7115   -0.7942
H   -2.0967   -0.1005   1.4468
H   -2.6757   0.9057   -0.6820
H   -3.2029   -0.6363   -1.3514
H   -5.0707   -0.7323   0.4032
H   -4.3838   0.7365   1.1617
H   -5.5439   0.3747   -1.6600
H   -4.8533   1.9413   -0.9558
H   -7.0689   0.2197   0.2467
H   -7.3920   1.7354   -0.7495
H   -6.2779   1.3915   1.9296
H   -5.9309   2.8275   1.0158
H   -4.4723   -3.1078   1.6582
