41

N   1.9670   1.7553   1.5839
C   1.2528   0.8935   0.6805
C   1.9427   -0.4497   0.6859
C   3.3493   -0.3804   0.2545
C   3.7853   -0.5093   -1.0307
C   5.1409   -0.4280   -1.3355
C   6.0882   -0.2152   -0.3541
O   7.4524   -0.1368   -0.6865
C   5.6574   -0.0832   0.9508
C   4.3031   -0.1661   1.2428
C   -0.1497   0.6663   1.1082
O   -0.5496   1.2207   2.1606
N   -1.0263   -0.1409   0.3761
C   -2.4155   -0.3916   0.7613
C   -3.2691   0.2356   -0.3002
C   -4.7384   0.0967   -0.1008
C   -5.4494   0.7642   -1.2183
O   -4.7626   1.3154   -2.1153
N   -6.8838   0.7872   -1.2854
C   -2.6740   -1.8165   0.9665
O   -1.7489   -2.6798   0.8022
O   -3.9053   -2.3225   1.3439
H   2.3622   2.6020   1.1480
H   1.5040   1.9101   2.4868
H   1.2283   1.3645   -0.2984
H   1.4233   -1.1701   -0.0080
H   1.8826   -0.9063   1.6907
H   3.0572   -0.6762   -1.8105
H   5.4962   -0.5289   -2.3504
H   7.7833   0.8061   -0.9073
H   6.3979   0.0864   1.7431
H   4.0040   -0.0593   2.2647
H   -0.7068   -0.6076   -0.5005
H   -2.5699   0.1782   1.7013
H   -3.0405   -0.2142   -1.3116
H   -3.0489   1.3157   -0.4212
H   -5.1026   0.5318   0.8493
H   -5.0983   -0.9618   -0.1146
H   -7.3868   -0.0875   -1.0998
H   -7.3555   1.6737   -1.5156
H   -4.1959   -3.2716   1.1397
