43

N   -1.1426   0.2472   1.1157
C   -1.2136   -0.9934   0.3645
C   -2.1304   -0.7351   -0.8151
C   -3.4531   -0.3441   -0.2613
C   -4.4253   -1.2816   0.0170
C   -5.6512   -0.8645   0.5360
C   -5.9406   0.4606   0.7874
O   -7.1781   0.8358   1.3064
C   -4.9618   1.3878   0.5053
C   -3.7369   0.9864   -0.0116
C   0.1235   -1.4601   -0.0560
O   0.2282   -2.5083   -0.7074
N   1.2994   -0.7607   0.2527
C   2.6314   -1.1291   -0.1073
C   3.1460   -0.1580   -1.1205
C   3.2053   1.2666   -0.7012
C   4.0949   1.4663   0.4878
C   3.8696   2.0296   -1.8619
C   3.5239   -1.4506   0.9862
O   3.2157   -1.4300   2.2235
O   4.8483   -1.8253   0.7769
H   -0.7183   0.9589   0.4694
H   -0.5195   0.1265   1.9449
H   -1.7327   -1.7571   1.0039
H   -2.2436   -1.6223   -1.4588
H   -1.7494   0.1213   -1.4195
H   -4.2270   -2.3323   -0.1701
H   -6.3982   -1.6026   0.7481
H   -7.8675   0.1486   1.5015
H   -5.1568   2.4339   0.6908
H   -2.9535   1.6965   -0.2407
H   1.1836   0.1363   0.8127
H   2.4969   -2.1009   -0.6878
H   2.5380   -0.2054   -2.0591
H   4.1890   -0.4290   -1.4713
H   2.2132   1.7487   -0.5893
H   3.6577   1.1624   1.4445
H   5.0188   0.8752   0.3213
H   4.4368   2.5328   0.4948
H   4.6535   1.4286   -2.3344
H   4.2973   2.9764   -1.5329
H   3.1204   2.2591   -2.6525
H   5.4085   -2.2951   1.4674
