45

N   1.9597   0.7044   2.2869
C   1.4942   0.3385   0.9854
C   2.4537   -0.6557   0.3751
C   3.8085   -0.0589   0.2589
C   4.1471   0.6225   -0.8947
C   5.4047   1.1773   -1.0045
C   6.3082   1.0411   0.0469
O   7.5593   1.6051   -0.0879
C   5.9640   0.3592   1.1967
C   4.7019   -0.2036   1.3195
C   0.1325   -0.2572   1.0142
O   -0.4643   -0.3840   2.1094
N   -0.5371   -0.6968   -0.1545
C   -1.8762   -1.2852   -0.1468
C   -2.7533   -0.2601   -0.8570
C   -4.1852   -0.6731   -0.9561
C   -5.0337   0.3537   -1.6628
C   -4.9963   1.6654   -0.9221
N   -5.5047   1.4606   0.4407
C   -1.8804   -2.6018   -0.7918
O   -0.7808   -3.0315   -1.2662
O   -2.9668   -3.4222   -0.9329
H   1.7562   1.6823   2.5635
H   1.7330   0.0061   3.0261
H   1.5066   1.2461   0.3478
H   2.0870   -1.0435   -0.5962
H   2.5324   -1.5179   1.0656
H   3.4032   0.6912   -1.6684
H   5.6561   1.7105   -1.9186
H   7.7490   2.5667   0.2110
H   6.7098   0.2871   1.9792
H   4.4293   -0.7429   2.2285
H   -0.0645   -0.6019   -1.0681
H   -2.2282   -1.3089   0.9142
H   -2.6844   0.6689   -0.2231
H   -2.3003   0.0080   -1.8178
H   -4.6053   -0.9181   0.0364
H   -4.2028   -1.5965   -1.6110
H   -4.6273   0.5600   -2.6832
H   -6.0840   0.0232   -1.7774
H   -3.9767   2.0646   -0.8545
H   -5.6528   2.4228   -1.4092
H   -4.6931   1.1613   1.0479
H   -6.2808   0.7816   0.4602
H   -3.1172   -3.9484   -1.8069
