41

N   -1.1940   -3.4250   0.3376
C   -1.6572   -2.1644   -0.2145
C   -2.6572   -1.4964   0.6639
C   -3.1715   -0.2031   0.1688
C   -2.5708   0.9923   0.5651
C   -3.0933   2.1539   0.0643
C   -4.1628   2.2386   -0.7981
O   -4.6542   3.4549   -1.2780
C   -4.7450   1.0315   -1.1785
C   -4.2499   -0.1611   -0.6975
C   -0.4912   -1.2807   -0.4142
O   -0.6567   -0.1762   -0.9882
N   0.8168   -1.6008   0.0040
C   1.9681   -0.7198   -0.1975
C   2.5952   -0.3471   1.0954
C   3.7650   0.5672   0.8941
S   3.2364   2.0946   0.0261
C   4.6900   3.1417   -0.1758
C   2.9112   -1.4867   -1.0329
O   2.6885   -2.6960   -1.3815
O   4.0825   -0.9079   -1.4729
H   -1.6893   -3.7019   1.1979
H   -1.1110   -4.1729   -0.3754
H   -2.0557   -2.4007   -1.2180
H   -2.2388   -1.2861   1.6859
H   -3.5628   -2.1335   0.8519
H   -1.7281   0.9588   1.2475
H   -2.6065   3.0753   0.3884
H   -4.1813   4.2903   -0.9585
H   -5.5834   1.0637   -1.8518
H   -4.7411   -1.0751   -1.0260
H   1.0062   -2.5005   0.4826
H   1.6071   0.1752   -0.7089
H   1.8870   0.2057   1.7742
H   2.9997   -1.2508   1.6254
H   4.1189   0.9034   1.9233
H   4.6282   0.1209   0.4183
H   4.7290   3.8818   0.6609
H   5.5934   2.5311   -0.2430
H   4.5989   3.7441   -1.1039
H   4.8797   -1.4382   -1.7786
