39

N   2.8331   0.6218   1.8303
C   2.9714   0.4449   0.3979
C   3.7492   -0.8141   0.1329
C   5.1284   -0.7463   0.7519
C   3.8965   -1.1356   -1.3196
C   1.6678   0.4735   -0.2877
O   1.4997   0.3433   -1.5074
N   0.4987   0.6669   0.5130
C   -0.8450   0.7077   -0.0993
C   -1.6644   -0.3521   0.5795
C   -3.0231   -0.3769   0.0288
C   -3.3130   -1.1061   -1.1015
C   -4.6021   -1.1614   -1.6245
C   -5.6093   -0.4659   -0.9892
C   -5.3413   0.2697   0.1428
C   -4.0468   0.3054   0.6401
C   -1.4715   2.0271   0.1309
O   -0.8197   2.8610   0.8365
O   -2.6855   2.4365   -0.3456
H   2.2352   -0.1686   2.2182
H   3.7928   0.4208   2.2449
H   3.5850   1.2937   0.0295
H   3.2245   -1.6792   0.6083
H   5.4022   0.3297   0.7999
H   5.8374   -1.3061   0.1227
H   5.0765   -1.1589   1.7787
H   3.0965   -1.8015   -1.7051
H   4.0061   -0.2046   -1.9344
H   4.8476   -1.6929   -1.4572
H   0.5610   0.7841   1.5473
H   -0.7752   0.5701   -1.1874
H   -1.6790   -0.2325   1.6846
H   -1.1953   -1.3648   0.4232
H   -2.5348   -1.6499   -1.6014
H   -4.8455   -1.7305   -2.5125
H   -6.6127   -0.5224   -1.4151
H   -6.1182   0.8161   0.6470
H   -3.8858   0.8956   1.5416
H   -2.8412   3.4024   -0.5426
