27

N   2.6064   1.4299   0.6046
C   1.6968   0.5194   0.0048
C   2.1652   -0.8872   0.3880
C   3.5284   -1.0445   -0.1384
O   4.4962   -0.5822   0.4878
O   3.7386   -1.7006   -1.3208
C   0.2868   0.7372   0.4091
O   0.0025   1.6565   1.2183
N   -0.7674   -0.0539   -0.0815
C   -2.1616   0.1093   0.2753
C   -2.9289   0.5226   -0.9737
S   -2.2537   2.0808   -1.5952
C   -2.7269   -1.1194   0.8759
O   -1.9766   -2.1106   1.0041
O   -4.0474   -1.1683   1.2828
H   2.6345   2.3650   0.1952
H   2.7720   1.3515   1.6043
H   1.8255   0.5770   -1.0930
H   1.4998   -1.6130   -0.0966
H   2.1558   -0.9920   1.5001
H   4.4897   -1.4967   -1.9404
H   -0.4879   -0.8218   -0.7643
H   -2.2307   0.9541   0.9919
H   -3.9968   0.5974   -0.7024
H   -2.7872   -0.2525   -1.7357
H   -3.2016   2.7244   -2.4442
H   -4.3313   -1.7824   2.0441
