37

N   -3.4241   2.8485   0.7350
C   -3.1938   1.3902   0.6330
C   -4.2278   0.8661   -0.3200
C   -4.1757   -0.5874   -0.5625
O   -3.7362   -1.0526   -1.6565
O   -4.5988   -1.5107   0.3890
C   -1.8061   1.2059   0.1988
O   -1.0497   2.2211   -0.0035
N   -1.1888   -0.0528   -0.0287
C   0.2139   -0.1185   -0.4564
C   0.8345   -1.2357   0.3104
C   2.2904   -1.4739   0.0294
C   3.1399   -0.2631   0.3634
C   4.5731   -0.6173   0.0382
N   5.4984   0.4504   0.3167
C   0.2543   -0.3748   -1.9210
O   -0.8413   -0.5278   -2.5589
O   1.4414   -0.4480   -2.5950
H   -2.8081   3.2804   1.4490
H   -3.1373   3.2428   -0.2018
H   -3.3644   0.9852   1.6602
H   -5.2652   1.1307   0.0082
H   -4.1285   1.3812   -1.3176
H   -4.3040   -2.4914   0.2614
H   -1.7345   -0.9462   0.1242
H   0.6575   0.8663   -0.2582
H   0.6811   -1.1300   1.3892
H   0.3069   -2.1803   -0.0202
H   2.5125   -1.7540   -1.0051
H   2.6139   -2.2996   0.6975
H   3.1103   -0.0362   1.4519
H   2.8396   0.6294   -0.1893
H   4.6833   -0.8459   -1.0621
H   4.8947   -1.5367   0.5669
H   5.2111   1.3413   -0.1330
H   5.7741   0.5356   1.3179
H   1.4534   -0.8923   -3.5056
