27

N   2.5809   -0.0373   1.2312
C   2.4375   0.6234   -0.0282
C   3.5125   0.1381   -0.9724
S   5.1410   0.4879   -0.2144
C   1.1293   0.2931   -0.6917
O   1.0126   0.2231   -1.8926
N   -0.0337   0.1564   0.1027
C   -1.3926   -0.1169   -0.3239
C   -2.1244   -0.8266   0.7145
C   -3.5779   -1.0628   0.4573
O   -4.0764   -2.1523   0.4227
O   -4.3433   0.0838   0.2774
C   -2.0001   1.1180   -0.8572
O   -2.3501   1.2910   -2.0165
O   -2.1745   2.1440   0.0792
H   1.8997   0.1487   1.9561
H   2.8608   -1.0336   1.0766
H   2.4827   1.7288   0.0761
H   3.3991   0.7633   -1.9084
H   3.3498   -0.9282   -1.1786
H   5.0965   -0.0392   1.1041
H   0.0691   0.2577   1.1731
H   -1.2382   -0.7882   -1.2473
H   -1.9642   -0.4440   1.7254
H   -1.6670   -1.8946   0.7314
H   -5.3488   0.0492   0.3188
H   -2.6803   2.9732   -0.1154
