39

N   2.8968653   -1.6878196   0.0240848
C   2.8465462   -0.4517025   0.7858451
C   3.5203213   0.6833156   0.0233594
C   2.9460632   0.8825858   -1.3644586
O   1.7553236   0.9805899   -1.5684128
N   3.8592057   0.9497131   -2.3662242
C   1.4183570   -0.0473396   1.1592092
O   1.2299794   0.8819069   1.9206310
N   0.4517735   -0.8246129   0.6352779
C   -0.9407328   -0.4669354   0.7780382
C   -1.4076195   0.3776009   -0.4133978
C   -2.8129403   0.9794952   -0.3410265
C   -3.0609085   1.7137458   0.9701983
C   -3.9244042   -0.0237343   -0.6266898
C   -1.7477529   -1.7279619   0.9793703
O   -2.5048073   -1.9379454   1.8862503
O   -1.5288571   -2.6242646   -0.0009031
H   3.7898760   -1.7999895   -0.4352136
H   2.7603608   -2.4905526   0.6228894
H   3.3596136   -0.5193246   1.7539434
H   4.5988750   0.5072293   -0.0146310
H   3.3519206   1.6044903   0.5855849
H   3.5311398   1.1794348   -3.2879851
H   4.8436758   0.9826541   -2.1830558
H   0.7359755   -1.4033515   -0.1423438
H   -1.0210306   0.1095502   1.6974503
H   -1.3050430   -0.2179293   -1.3252008
H   -0.6748352   1.1831937   -0.4923090
H   -2.8409597   1.7234096   -1.1454224
H   -2.2524237   2.4127550   1.1957024
H   -3.9940732   2.2789678   0.9246570
H   -3.1446718   1.0145659   1.8057039
H   -4.8840367   0.4888379   -0.7242729
H   -3.7397561   -0.5668111   -1.5564257
H   -4.0325770   -0.7516679   0.1792737
H   -2.0784428   -3.3919990   0.1972033
C   0.7962287321576785   3.021552430918428   3.6738501420832526
O   1.9317301837042389   3.217166650314223   3.7160464773012385
O   -0.3392727193888817   2.825938211522632   3.631653806865266
