  33

 N         -1.5089         2.2593         0.6622
 C         -0.8939         0.9473         0.5715
 C         -1.4653         0.1981         -0.6041
 C         -2.955         0.011         -0.4774
 C         -3.3339         -0.7664         0.7581
 C         -3.508         -0.7392         -1.67
 C         0.5676         1.1307         0.4401
 O         1.0964         2.2912         0.4203
 N         1.4782         0.0426         0.3276
 C         2.907         0.2045         0.1986
 C         3.5707         -0.4588         1.4043
 O         3.2659         -1.816         1.4663
 C         3.4394         -0.4408         -1.0221
 O         2.6901         -1.0478         -1.8219
 O         4.7913         -0.384         -1.3044
 H         -1.5776         2.7012         -0.2829
 H         -0.9548         2.8596         1.314
 H         -1.168         0.4128         1.5101
 H         -0.9931         -0.7793         -0.7292
 H         -1.2864         0.8137         -1.5087
 H         -3.4644         0.9872         -0.4387
 H         -3.4945         -0.1052         1.638
 H         -2.5686         -1.5575         0.9784
 H         -4.3012         -1.2909         0.5969
 H         -3.4852         -1.8461         -1.5028
 H         -2.9373         -0.4557         -2.5946
 H         -4.5834         -0.4614         -1.7646
 H         1.0812         -0.922         0.3401
 H         3.2312         1.2463         0.1949
 H         4.6733         -0.3602         1.327
 H         3.2063         0.0295         2.3114
 H         3.3148         -2.2206         0.5713
 H         5.1662         -0.4831         -2.2496
