29

N   -1.1600633   -1.6439575   -1.5812978
C   -1.6028827   -0.3890398   -0.9987826
C   -2.4267988   -0.6837719   0.2572541
C   -3.0758380   0.5616530   0.7996140
O   -3.9396792   1.1738492   0.2358315
O   -2.6017074   0.9015547   2.0062389
C   -0.4212821   0.4884826   -0.5962186
O   -0.5696051   1.6761434   -0.3688785
N   0.7491498   -0.1581826   -0.4741982
C   1.9390186   0.5191077   -0.0455455
C   1.9795352   0.7295566   1.4680491
C   3.1301975   -0.2817918   -0.5080609
O   3.0796366   -1.3904532   -0.9683861
O   4.2770345   0.3820498   -0.3221731
H   -0.8298942   -1.5062101   -2.5273676
H   -1.9182327   -2.3109058   -1.6224887
H   -2.2183027   0.2254386   -1.6651114
H   -1.8044161   -1.1639569   1.0119838
H   -3.2382229   -1.3638092   -0.0142043
H   -3.0395309   1.7262687   2.2517408
H   0.7854615   -1.1415250   -0.7039748
H   1.9755672   1.4998613   -0.5287331
H   1.0988850   1.2992800   1.7610597
H   1.9691484   -0.2302563   1.9873192
H   2.8730418   1.2811097   1.7582423
H   4.9899801   -0.2003951   -0.6119122
C   -0.9104973959428   4.405756588199154   0.15361961997374574
O   -2.0277069125975875   4.318154685927442   -0.1176326659416983
O   0.20671212071198775   4.4933584904708646   0.42487190588918955
