  38

 N         -2.0263         -0.6857         -2.0741
 C         -1.4054         -0.0026         -0.9755
 C         -2.1951         -0.2537         0.2759
 C         -3.6127         0.2249         0.186
 C         -4.3587         -0.454         -0.9275
 C         -3.7295         1.7182         0.0433
 C         -0.0315         -0.5422         -0.7814
 O         0.4147         -1.4542         -1.5222
 N         0.8396         -0.0626         0.2382
 C         2.1731         -0.5812         0.4323
 C         3.1911         0.5345         0.1737
 C         3.0746         1.0547         -1.2244
 C         4.5854         0.0561         0.4083
 C         2.3561         -1.0933         1.8127
 O         1.4494         -1.0681         2.6853
 O         3.5818         -1.6313         2.1796
 H         -1.8755         -0.1506         -2.9605
 H         -1.5635         -1.6226         -2.1925
 H         -1.3758         1.0939         -1.2098
 H         -2.192         -1.3258         0.4854
 H         -1.6687         0.2506         1.1103
 H         -4.1128         -0.054         1.1448
 H         -4.0005         -1.4994         -1.0241
 H         -5.4501         -0.5286         -0.7165
 H         -4.2709         0.0825         -1.8889
 H         -3.1142         2.0796         -0.8005
 H         -3.44         2.2182         0.9876
 H         -4.8204         1.9257         -0.1596
 H         0.4952         0.6889         0.862
 H         2.3576         -1.3671         -0.3204
 H         2.9177         1.3423         0.9093
 H         3.105         2.1786         -1.1841
 H         2.1562         0.7181         -1.7473
 H         3.951         0.7452         -1.824
 H         5.3425         0.5631         -0.2427
 H         4.7181         -1.0317         0.2172
 H         4.881         0.3166         1.4573
 H         3.6534         -2.3829         2.8734
