38

N   0.4620247   1.4297887   0.5811947
C   0.2727147   0.7212743   -0.6657218
C   1.0736952   -0.5812215   -0.7023195
C   2.5891319   -0.4303056   -0.7406448
C   3.2550692   -0.0421407   0.5709861
C   4.7716574   -0.1103014   0.5059587
N   5.2290408   -1.4752554   0.2817217
C   -1.1677032   0.3918574   -1.0633142
O   -1.4615586   0.1100637   -2.2070690
N   -2.0720036   0.3921680   -0.0470866
C   -3.4676808   0.2098283   -0.2897717
C   -4.0945270   -0.8085522   0.6613842
S   -3.1423793   -2.3513385   0.5813015
C   -4.2068647   1.5297430   -0.1589285
O   -3.7495676   2.5279681   0.3241132
O   -5.4594852   1.4407535   -0.6223946
H   0.3457220   0.8414830   1.3938034
H   -0.1062801   2.2600869   0.6653928
H   0.6353357   1.3582875   -1.4788217
H   0.7780533   -1.1982517   0.1564139
H   0.7483675   -1.1211697   -1.5933464
H   2.8545011   0.3043150   -1.5098017
H   3.0208408   -1.3793170   -1.0670517
H   2.9070449   -0.7146059   1.3669392
H   2.9510545   0.9633124   0.8657626
H   5.1198650   0.4994787   -0.3339575
H   5.1879882   0.3454096   1.4164742
H   5.0345101   -2.0471222   1.0938281
H   6.2289927   -1.5024775   0.1376881
H   -1.7905254   0.8135409   0.8217360
H   -3.5625447   -0.1428095   -1.3197494
H   -4.0903513   -0.4211824   1.6829784
H   -5.1241173   -0.9922909   0.3612852
H   -4.0961475   -3.1236336   1.1219128
H   -5.8740738   2.3028168   -0.4918956
C   -2.1392823867399606   -0.5398419796079446   -4.844930458928461
O   -1.0461277560991638   -0.3671293905184948   -5.168337810543422
O   -3.2324370173807573   -0.7125545686973941   -4.5215231073135005
