  38

 N         0.8679         -1.2612         0.3503
 C         0.694         0.0516         0.9411
 C         1.5329         1.0638         0.1989
 C         2.9758         0.7109         0.2567
 C         3.5521         -0.0936         -0.7118
 C         4.9026         -0.4277         -0.6635
 C         5.6872         0.04         0.3537
 O         7.0331         -0.2831         0.4166
 C         5.1323         0.8405         1.3249
 C         3.781         1.1669         1.2647
 C         -0.728         0.4451         1.029
 O         -1.055         1.5583         1.5184
 N         -1.7994         -0.3797         0.5808
 C         -3.1979         0.0198         0.673
 C         -3.8594         0.0286         -0.6482
 C         -3.7948         -0.9195         -1.6485
 N         -4.5583         -0.5152         -2.7036
 C         -5.082         0.6539         -2.364
 N         -4.6749         0.9941         -1.139
 C         -3.8544         -0.9367         1.6038
 O         -3.2355         -1.88         2.1577
 O         -5.2043         -0.7751         1.8666
 H         0.4244         -1.2434         -0.6064
 H         0.3672         -1.9433         0.9777
 H         1.0949         -0.0121         1.9746
 H         1.3222         2.0962         0.4845
 H         1.2462         0.9787         -0.8877
 H         2.985         -0.4919         -1.5371
 H         5.3313         -1.0573         -1.4305
 H         7.4742         -0.8659         -0.2754
 H         5.7622         1.2001         2.1177
 H         3.3886         1.7979         2.0485
 H         -1.5401         -1.3037         0.1739
 H         -3.3054         1.0254         1.1275
 H         -3.2457         -1.8358         -1.6354
 H         -5.7523         1.2607         -2.9901
 H         -4.9286         1.8604         -0.6169
 H         -5.7393         -1.5675         2.216
