  31

 N         1.7482         -0.1725         -1.2945
 C         1.8466         -0.9896         -0.0704
 C         2.801         -0.2607         0.8618
 C         4.1324         -0.142         0.1707
 O         4.6059         -1.2086         -0.3439
 N         4.8532         1.0701         0.0754
 C         0.5064         -1.1514         0.5232
 O         0.3737         -1.7695         1.6115
 N         -0.6223         -0.6045         -0.1451
 C         -1.9607         -0.7219         0.3566
 C         -2.5824         0.6271         0.4046
 C         -3.2644         1.0969         1.512
 N         -3.7046         2.3395         1.2309
 C         -3.3016         2.647         -0.0363
 N         -2.6213         1.5854         -0.5142
 C         -2.6884         -1.5971         -0.6214
 O         -2.1229         -2.0837         -1.6278
 O         -4.0394         -1.865         -0.3887
 H         2.6728         -0.148         -1.7535
 H         1.4122         0.7741         -0.9462
 H         2.2178         -2.0149         -0.3408
 H         2.9593         -0.8427         1.8036
 H         2.4125         0.7383         1.088
 H         4.5564         1.8252         -0.5678
 H         5.7055         1.2145         0.6575
 H         -0.4575         -0.0914         -1.0376
 H         -1.9106         -1.2145         1.3522
 H         -3.4405         0.607         2.4627
 H         -3.4725         3.5444         -0.5742
 H         -2.1982         1.5367         -1.4742
 H         -4.4164         -2.7283         -0.7921
