  44

 N         1.8655         1.4185         -0.4259
 C         1.7489         0.0233         -0.4564
 C         2.5568         -0.7447         0.5312
 C         4.0105         -0.4778         0.4213
 C         4.5274         0.494         1.2452
 C         5.8671         0.7492         1.1624
 C         6.7079         0.0565         0.2679
 O         8.0772         0.3221         0.1941
 C         6.0952         -0.9045         -0.5249
 C         4.7406         -1.1734         -0.4406
 C         0.2767         -0.4014         -0.1641
 O         0.0378         -1.5284         0.0557
 N         -0.6737         0.6565         -0.1823
 C         -2.0721         0.3425         0.0339
 C         -3.1092         1.3057         -0.2982
 C         -4.4653         0.7039         0.0823
 C         -5.0054         1.0052         1.3333
 C         -6.2002         0.3577         1.7279
 C         -6.7933         -0.5395         0.8675
 C         -6.2428         -0.8324         -0.3684
 C         -5.0629         -0.1993         -0.7618
 C         -2.2439         -0.9177         -0.7955
 O         -2.1234         -2.0544         -0.3103
 O         -2.5272         -0.8005         -2.115
 H         2.1091         1.8402         -1.366
 H         2.4018         1.8037         0.3438
 H         2.0147         -0.3716         -1.4584
 H         2.248         -0.5121         1.5876
 H         2.4222         -1.87         0.3925
 H         3.8827         1.0057         1.9351
 H         6.2943         1.4938         1.7914
 H         8.6333         -0.2204         0.8313
 H         6.7165         -1.4449         -1.196
 H         4.3665         -1.943         -1.124
 H         -0.3457         1.6557         -0.3252
 H         -2.1381         -0.0171         1.106
 H         -3.2003         1.5808         -1.3772
 H         -3.0069         2.2122         0.3146
 H         -4.5164         1.7459         1.9659
 H         -6.6632         0.5467         2.6713
 H         -7.7038         -1.0038         1.1944
 H         -6.7003         -1.5221         -1.0571
 H         -4.7063         -0.4048         -1.7209
 H         -2.1004         -1.436         -2.8187
