37

N   0.9089233   1.3117206   -0.6791181
C   0.7474675   0.1148737   0.1298082
C   -0.0570488   -1.0109161   -0.5327726
C   -1.4554438   -0.5998703   -0.8241384
C   -2.4963403   -0.3815774   0.1401717
C   -2.5700301   -0.5192006   1.5293495
C   -3.7581009   -0.2271693   2.1678426
C   -4.8816960   0.1993930   1.4463181
C   -4.8420544   0.3397299   0.0729181
C   -3.6430572   0.0458152   -0.5674619
N   -3.3076184   0.0860986   -1.8941083
C   -1.9976865   -0.3018926   -2.0417629
C   2.0973114   -0.4192291   0.6034954
O   2.2264199   -1.5426915   1.0528922
N   3.1056691   0.4739502   0.5102856
C   4.4537937   0.1093782   0.7821838
C   5.3122493   0.1194778   -0.4581592
O   4.9405348   0.3913947   -1.5653288
O   6.5795986   -0.2072850   -0.1650275
H   0.0296183   1.8065508   -0.7407223
H   1.1652511   1.0586254   -1.6267569
H   0.2226189   0.4151992   1.0431393
H   -0.0295302   -1.8810939   0.1259209
H   0.4515377   -1.3044526   -1.4565341
H   -1.7112337   -0.8597496   2.0961122
H   -3.8290179   -0.3316642   3.2433826
H   -5.8002166   0.4199850   1.9760189
H   -5.7147695   0.6645714   -0.4811921
H   -3.9284120   0.3242026   -2.6434423
H   -1.5451866   -0.3480105   -3.0201954
H   2.8778977   1.3403880   0.0445473
H   4.9215557   0.7625836   1.5252274
H   4.4520377   -0.9006640   1.1997999
H   7.0750585   -0.1830711   -0.9926932
C   4.072578404547159   1.0263228838257867   -4.150578864689333
O   3.0034466503242   1.1904989609534462   -3.7513139052812847
O   5.141710158770119   0.8621468066981269   -4.549843824097381
