  42

 N         3.484         -0.0624         1.6808
 C         2.6511         0.4682         0.6239
 C         3.3663         0.4931         -0.6791
 C         4.6059         1.3339         -0.6725
 C         5.629         0.8927         0.3002
 O         5.6817         1.3634         1.4515
 O         6.5491         -0.0748         -0.0968
 C         1.4091         -0.3807         0.5473
 O         1.2347         -1.3208         1.3577
 N         0.4161         -0.1344         -0.4427
 C         -0.7532         -0.9826         -0.4707
 C         -2.0513         -0.2016         -0.3493
 C         -2.0096         0.5245         0.9645
 C         -3.201         1.3826         1.2645
 N         -4.3939         0.6093         1.3036
 C         -4.9656         0.0475         0.1572
 N         -4.9632         0.7037         -0.9472
 N         -5.5751         -1.252         0.1548
 C         -0.7495         -1.7512         -1.7667
 O         0.1771         -1.5893         -2.6037
 O         -1.7532         -2.6538         -2.081
 H         2.8604         -0.48         2.4156
 H         3.9906         -0.8938         1.2552
 H         2.3705         1.5102         0.9082
 H         2.7254         0.8599         -1.513
 H         3.6549         -0.5592         -0.9414
 H         4.382         2.4053         -0.431
 H         5.102         1.3288         -1.6695
 H         7.3254         -0.3609         0.4755
 H         0.553         0.6395         -1.1136
 H         -0.7346         -1.7147         0.3568
 H         -2.206         0.4697         -1.2058
 H         -2.8471         -0.9836         -0.333
 H         -1.8379         -0.2368         1.7898
 H         -1.0999         1.1817         1.0079
 H         -3.2386         2.2046         0.5077
 H         -3.0722         1.8934         2.2493
 H         -4.8769         0.4411         2.2326
 H         -4.5657         1.6492         -1.0909
 H         -4.9777         -2.099         0.242
 H         -6.6205         -1.3483         0.0644
 H         -1.6752         -3.3224         -2.8449
