  36

 N         1.2556         -2.0995         -0.658
 C         1.4187         -1.321         0.5255
 C         2.5301         -0.2975         0.4126
 C         3.8579         -0.9445         0.1455
 S         5.1356         0.3088         0.022
 C         4.8943         1.3651         -1.4303
 C         0.1572         -0.6731         0.9573
 O         0.1206         0.0582         1.9798
 N         -1.0733         -0.8349         0.254
 C         -2.3097         -0.202         0.6759
 C         -2.7608         0.7745         -0.3806
 C         -4.0224         1.4829         -0.0506
 C         -1.683         1.7932         -0.6802
 C         -3.3493         -1.1951         1.0065
 O         -3.153         -2.4343         0.9213
 O         -4.6021         -0.7806         1.4309
 H         1.8749         -2.9199         -0.656
 H         1.2171         -1.5655         -1.5334
 H         1.7257         -2.0188         1.3423
 H         2.2434         0.4324         -0.37
 H         2.612         0.2684         1.3626
 H         3.7906         -1.5818         -0.7753
 H         4.0836         -1.6061         0.9979
 H         4.0481         2.0616         -1.2908
 H         4.8005         0.7519         -2.3481
 H         5.8044         1.992         -1.5603
 H         -1.023         -1.4502         -0.6001
 H         -2.0621         0.3873         1.5837
 H         -2.9256         0.1949         -1.3302
 H         -4.2839         1.4996         1.0143
 H         -3.9792         2.5651         -0.3685
 H         -4.9001         1.0627         -0.618
 H         -0.6632         1.4097         -0.4947
 H         -1.8345         2.6327         0.0541
 H         -1.8345         2.1684         -1.714
 H         -5.1106         -1.2844         2.1732
