  27

 N         4.8117         0.5881         0.2913
 C         3.7109         -0.0895         -0.3298
 C         2.4503         0.0347         0.449
 O         2.4312         0.6776         1.5218
 N         1.2729         -0.5657         -0.0095
 C         -0.0017         -0.4994         0.6799
 C         -0.9438         0.2186         -0.2394
 C         -2.3251         0.3945         0.2857
 C         -3.117         1.1192         -0.7458
 O         -2.603         1.4827         -1.8577
 N         -4.4812         1.4514         -0.5657
 C         -0.3991         -1.8479         1.0449
 O         0.3385         -2.8194         0.7483
 O         -1.5673         -2.1879         1.7206
 H         5.5005         0.9242         -0.3911
 H         4.4916         1.3188         0.9742
 H         3.9579         -1.1509         -0.4864
 H         3.5549         0.4018         -1.3304
 H         1.3224         -1.1047         -0.9241
 H         0.1789         0.1052         1.598
 H         -0.5149         1.2539         -0.3732
 H         -0.9533         -0.2372         -1.2379
 H         -2.3323         1.0506         1.1907
 H         -2.8588         -0.5275         0.5161
 H         -4.8877         2.3034         -0.9857
 H         -5.0735         0.8202         0.0004
 H         -1.9632         -3.1146         1.612
