47

N   2.7579016   -2.0544618   0.4816393
C   2.0150180   -0.9965732   1.1393112
C   2.7984117   0.3171183   1.0819612
C   2.9694988   0.8432365   -0.3429614
C   4.3449918   1.4264481   -0.6360261
C   5.4842003   0.4096795   -0.5273324
N   5.3319860   -0.8162669   -1.2863569
C   0.6384286   -0.9091323   0.4856012
O   0.2058110   -1.7975646   -0.2298200
N   -0.0830616   0.1895841   0.7784034
C   -1.3913846   0.3942207   0.2238153
C   -2.4654509   -0.3893525   1.0118506
C   -3.8037407   -0.4487353   0.3418369
C   -4.8930933   0.2551390   0.8407779
C   -6.1246534   0.2014210   0.2048998
C   -6.2800365   -0.5586196   -0.9438759
C   -5.1992688   -1.2685329   -1.4485308
C   -3.9720917   -1.2152548   -0.8084421
C   -1.6668418   1.8771053   0.2555209
O   -1.0962661   2.6514269   0.9799142
O   -2.6305724   2.2348914   -0.5899846
H   2.1003104   -2.6882916   0.0409703
H   3.3183256   -2.5734087   1.1410849
H   1.8100152   -1.2296698   2.1956557
H   2.3403865   1.0730472   1.7281965
H   3.7727239   0.1117955   1.5315343
H   2.2032909   1.5925484   -0.5560860
H   2.7925482   0.0183572   -1.0388155
H   4.3391783   1.8403247   -1.6504787
H   4.5522971   2.2672491   0.0367356
H   5.6311789   0.1280590   0.5198073
H   6.4162535   0.8969360   -0.8291488
H   5.1778349   -0.6147754   -2.2660782
H   4.5250330   -1.3349460   -0.9521985
H   0.3038726   0.9452965   1.3191852
H   -1.4028907   0.0454517   -0.8106682
H   -2.5494293   0.0412534   2.0123876
H   -2.0608474   -1.3975295   1.1189133
H   -4.7755808   0.8510866   1.7395525
H   -6.9647211   0.7533215   0.6091411
H   -7.2407699   -0.6028024   -1.4420228
H   -5.3149268   -1.8708072   -2.3415211
H   -3.1315090   -1.7791934   -1.1992595
H   -2.7823601   3.1811206   -0.4707889
C   -0.7871160648286021   -3.836659810037511   -1.8718268721941864
O   0.19894110569679757   -4.42026598827463   -1.743358645854339
O   -1.7731732353540015   -3.253053631800391   -2.0002950985340333
