44

N   -1.1553206   -3.6458949   -0.5434122
C   -1.5725118   -2.2801866   -0.8161312
C   -2.4340870   -1.7996367   0.3611945
C   -2.8481376   -0.3623074   0.2858168
C   -2.2073306   0.6048017   1.0478353
C   -2.5526652   1.9437228   0.9534011
C   -3.5595003   2.3377434   0.0829835
O   -3.9426892   3.6322230   -0.0556535
C   -4.2198353   1.3827753   -0.6807571
C   -3.8612104   0.0527357   -0.5741538
C   -0.3616728   -1.3687354   -0.9801757
O   -0.3736332   -0.4050721   -1.7217255
N   0.6894597   -1.6963660   -0.2017873
C   1.8971241   -0.9212343   -0.2116552
C   1.7343043   0.3529855   0.6388536
C   2.8341226   1.3902243   0.5070452
S   2.8902667   2.0658122   -1.1687630
C   4.4399314   2.9635894   -1.0494675
C   3.0092825   -1.8030465   0.2964039
O   2.8477757   -2.8375478   0.8872906
O   4.2239754   -1.3035145   0.0344361
H   -1.9393018   -4.2051893   -0.2351728
H   -0.7731428   -4.0863131   -1.3695484
H   -2.1467909   -2.1587495   -1.7420923
H   -1.8715382   -1.9804103   1.2806292
H   -3.3203473   -2.4427150   0.3988361
H   -1.4175172   0.3082367   1.7290588
H   -2.0366411   2.6837201   1.5570567
H   -3.3907254   4.1856468   0.4994772
H   -5.0058453   1.7004551   -1.3537118
H   -4.3806105   -0.6816393   -1.1804850
H   0.6687123   -2.5749062   0.2963618
H   2.1298887   -0.6139673   -1.2356074
H   0.7827632   0.7899691   0.3286712
H   1.6313071   0.0625885   1.6886985
H   2.6438863   2.2030586   1.2120208
H   3.8111876   0.9635381   0.7384883
H   4.3919314   3.7401119   -0.2845552
H   5.2689040   2.2871842   -0.8357269
H   4.6129671   3.4364185   -2.0156161
H   4.8632645   -1.9200089   0.4135387
C   -0.4011733143111892   1.8138668518325538   -3.4292241003344106
O   -1.4718189984524517   1.5446245617820031   -3.761843114039313
O   0.6694723698300736   2.0831091418831043   -3.096605086629508
