  31

 N         -3.3011         0.1603         0.9286
 C         -2.9029         0.6377         -0.374
 C         -2.8509         2.1677         -0.3709
 S         -4.4734         2.8545         0.0296
 C         -1.5758         0.1092         -0.7782
 O         -1.1139         0.4436         -1.8994
 N         -0.8211         -0.7546         0.0569
 C         0.4819         -1.2502         -0.3866
 C         1.5653         -0.6609         0.4774
 C         2.9462         -1.0607         0.1645
 S         4.1015         -0.2272         1.324
 C         4.0707         1.5781         1.0123
 C         0.4788         -2.7082         -0.4363
 O         -0.5238         -3.3837         -0.1154
 O         1.5937         -3.4053         -0.8448
 H         -3.4397         -0.8785         0.8318
 H         -4.2208         0.5965         1.1541
 H         -3.6515         0.3342         -1.1054
 H         -2.1443         2.4544         0.4507
 H         -2.5199         2.522         -1.3483
 H         -4.6234         4.1194         -0.5598
 H         -1.2196         -1.0224         0.9854
 H         0.6397         -0.819         -1.3961
 H         1.3375         -0.9575         1.5393
 H         1.52         0.452         0.4768
 H         3.1811         -2.1359         0.2522
 H         3.2745         -0.7447         -0.8486
 H         4.2926         1.7569         -0.0751
 H         3.1156         2.0285         1.2941
 H         4.888         2.0698         1.5717
 H         1.8949         -4.276         -0.4284
