35

N   2.2824879   -1.7984958   -0.4152881
C   1.4248836   -0.8165588   0.2078971
C   1.7683241   0.5871007   -0.2960887
C   3.1934651   0.9801191   0.0730079
C   3.5623362   2.3317971   -0.4571922
O   3.8059061   3.3033885   0.2067056
O   3.5845175   2.3567359   -1.8025799
C   -0.0517931   -1.0674816   -0.0781823
O   -0.4301202   -1.5720639   -1.1172817
N   -0.9225869   -0.6396352   0.8686902
C   -2.3409966   -0.8127630   0.6923483
C   -2.8929412   0.0965551   -0.4024626
C   -2.5733111   1.5398306   -0.1400139
O   -2.1236178   2.3109510   -0.9391999
O   -2.8660261   1.9028604   1.1264245
C   -2.6646073   -2.2912130   0.4992376
O   -2.0688284   -3.1795664   1.0361672
O   -3.7432467   -2.4808218   -0.2691429
H   2.1881599   -2.6914502   0.0507881
H   1.9580287   -1.9442785   -1.3656916
H   1.5918740   -0.8503390   1.2905017
H   1.6440454   0.6045582   -1.3815665
H   1.0582878   1.3097286   0.1149990
H   3.3196043   1.0115376   1.1550870
H   3.8758484   0.2318689   -0.3352138
H   3.8078585   3.2599700   -2.0579727
H   -0.5744267   -0.3658845   1.7688356
H   -2.8154223   -0.5418114   1.6389443
H   -3.9783858   -0.0089865   -0.4516565
H   -2.4766448   -0.1724521   -1.3693692
H   -2.6493876   2.8404178   1.2006911
H   -3.8930847   -3.4336178   -0.3076229
C   -1.3016199871722927   -2.734400320153105   -3.5109111966732667
O   -0.20623325980817842   -2.8652174638086008   -3.846207770530431
O   -2.397006714536407   -2.6035831764976085   -3.1756146228161017
