31

N   2.3790270   1.7149530   0.1191750
C   1.4717415   0.6385790   -0.2395584
C   1.7840921   -0.6342681   0.5573956
C   3.0824652   -1.3339210   0.1874097
O   3.1380793   -2.5429819   0.0823574
N   4.1409146   -0.5168715   0.0133113
C   0.0192257   1.0102508   0.0398701
O   -0.2817438   1.7987074   0.9160090
N   -0.9099737   0.3893515   -0.7225227
C   -2.2980899   0.4682881   -0.3669285
C   -3.1053155   -0.3648980   -1.3660411
O   -2.5690919   -1.6530336   -1.5228387
C   -2.5443497   -0.1072859   1.0155143
O   -2.0363658   -1.1227772   1.4152006
O   -3.4631217   0.5774318   1.6950620
H   2.0705760   2.0953193   1.0090589
H   2.2966364   2.4725004   -0.5470136
H   1.5910586   0.4247620   -1.3060738
H   1.8146512   -0.3761895   1.6208258
H   0.9921290   -1.3724705   0.4357922
H   4.0036545   0.4850534   0.0653527
H   5.0211694   -0.9238792   -0.2463909
H   -0.6431975   -0.4070750   -1.2807448
H   -2.6401899   1.5035637   -0.3814700
H   -4.1550332   -0.3880708   -1.0519634
H   -3.0555304   0.1138289   -2.3451253
H   -2.5030151   -2.0686358   -0.6561336
H   -3.6005023   0.1199688   2.5345702
C   -0.9744823369426365   3.6134901986781567   2.9326092858911963
O   0.14167065212220442   3.7678428860680597   3.1771225838877175
O   -2.0906353260074773   3.459137511288253   2.6880959878946746
