43

N   1.3025646   1.3093826   0.8474813
C   0.8140406   0.6590746   -0.3436367
C   1.4372630   -0.7363999   -0.4822056
C   2.9077797   -0.7021215   -0.7677344
C   3.3648388   -0.5991383   -2.0764254
C   4.7185694   -0.5330013   -2.3650258
C   5.6485490   -0.5719849   -1.3339151
O   6.9876777   -0.5151664   -1.5543031
C   5.2117436   -0.6781327   -0.0200910
C   3.8561238   -0.7400191   0.2494658
C   -0.7015259   0.5258954   -0.5188482
O   -1.1810503   0.1107702   -1.5599963
N   -1.4572518   0.8789366   0.5399821
C   -2.8926719   0.8513816   0.4849664
C   -3.4452647   -0.5803749   0.6871179
C   -4.8851825   -0.7274106   0.2258500
C   -3.2499017   -1.0668794   2.1134437
C   -3.3898685   1.8256348   1.5244397
O   -2.7043515   2.3050231   2.3899905
O   -4.6909330   2.1005974   1.3978218
H   1.0964906   0.7989249   1.6942504
H   1.0043411   2.2684110   0.9411595
H   1.1385298   1.2485260   -1.2068964
H   1.2429808   -1.2926718   0.4416413
H   0.9094572   -1.2523233   -1.2851089
H   2.6479716   -0.5723124   -2.8902675
H   5.0529351   -0.4573145   -3.3950955
H   7.1484081   -0.4457592   -2.4968804
H   5.9442754   -0.7101276   0.7763165
H   3.5275346   -0.8173874   1.2793054
H   -1.0353491   1.3150134   1.3430885
H   -3.2163637   1.1931899   -0.5026646
H   -2.8204897   -1.1815607   0.0212374
H   -5.1781447   -1.7783971   0.2576483
H   -5.0078815   -0.3777175   -0.8011366
H   -5.5751356   -0.1681581   0.8585404
H   -3.5046418   -2.1248199   2.1926250
H   -2.2154937   -0.9470597   2.4405746
H   -3.8908351   -0.5224584   2.8128896
H   -4.9196379   2.7078347   2.1130952
C   -1.109745754344136   3.4201454639679216   4.4033793420521015
O   -0.19684115622320608   2.8427002604106093   4.0001781123685625
O   -2.022650352465066   3.997590667525234   4.8065805717356405
