34

N   1.6196911   -1.2197408   1.5969454
C   1.6041448   0.1598262   1.1582615
C   2.3693218   0.3158660   -0.1135256
C   3.0193450   -0.5593639   -0.9411044
N   3.5642345   0.1055121   -2.0085925
C   3.2450207   1.3609012   -1.8368221
N   2.5257110   1.5424866   -0.7014874
C   0.2024567   0.7297199   0.9246518
O   -0.0011822   1.9054145   1.1982591
N   -0.7574751   -0.0410913   0.3851947
C   -2.0520062   0.5679566   0.1344665
C   -2.8469345   -0.5435317   -0.5595255
C   -1.7605269   -1.3507987   -1.2557848
C   -0.6339431   -1.3591340   -0.2345177
C   -2.7656830   1.0614052   1.3704545
O   -3.5872296   1.9341585   1.3543728
O   -2.4539142   0.3653930   2.4741720
H   1.1840929   -1.2995978   2.5057286
H   2.5757516   -1.5370254   1.6904533
H   2.0230757   0.8573755   1.8964287
H   3.1202606   -1.6266301   -0.8261668
H   3.5051708   2.1761609   -2.4938282
H   2.1176776   2.3970035   -0.3592581
H   -1.9429202   1.4423981   -0.5110769
H   -3.3512869   -1.1610895   0.1878704
H   -3.6019712   -0.1365623   -1.2289238
H   -1.4347881   -0.8406723   -2.1655201
H   -2.0820740   -2.3558064   -1.5273095
H   0.3507033   -1.4868255   -0.6755139
H   -0.7741403   -2.1479264   0.5080924
H   -2.9805825   0.7441185   3.1884055
C   -0.46695885092707273   4.5945426248378585   1.8240722028167937
O   0.6155017416144157   4.6924741769560745   2.208906552497856
O   -1.5494194434685613   4.4966110727196416   1.4392378531357313
