49

N   -3.1822337   -1.1783927   -1.9386326
C   -2.3633516   -0.5805479   -0.9100593
C   -3.1166403   -0.5624932   0.4341747
C   -4.2242342   0.4464256   0.4624845
C   -4.0224263   1.6878812   1.0586219
C   -5.0223509   2.6488480   1.0646557
C   -6.2455680   2.3781917   0.4707621
C   -6.4589792   1.1432510   -0.1248593
C   -5.4570396   0.1854545   -0.1293678
C   -1.0532172   -1.3372217   -0.7019799
O   -0.9746208   -2.5371679   -0.8734848
N   -0.0117940   -0.5797221   -0.2736759
C   1.2823486   -1.1387851   0.0520333
C   2.3611243   -0.6484065   -0.9068856
C   3.7030028   -1.3585865   -0.8036587
C   4.4808786   -1.1025943   0.4876373
N   4.7010025   0.2835865   0.7913666
C   5.5649976   1.0736562   0.0779121
N   6.4782945   0.6959285   -0.7332820
N   5.4218959   2.4232952   0.3544560
C   1.5523224   -0.7408689   1.4905931
O   1.8318111   0.3792773   1.8389560
O   1.3973284   -1.7497440   2.3483275
H   -2.8351781   -0.9337366   -2.8562772
H   -3.0975936   -2.1868087   -1.8599778
H   -2.1457824   0.4547173   -1.1910921
H   -2.4104190   -0.3467526   1.2402784
H   -3.5001261   -1.5713713   0.6072409
H   -3.0701630   1.9018932   1.5335526
H   -4.8473178   3.6071619   1.5387955
H   -7.0309057   3.1241791   0.4759548
H   -7.4129496   0.9237878   -0.5892424
H   -5.6200668   -0.7711955   -0.6083755
H   -0.1307258   0.4153744   -0.1853189
H   1.1672215   -2.2208092   -0.0121441
H   2.4976339   0.4278647   -0.7659397
H   1.9619386   -0.7879383   -1.9135401
H   3.5623620   -2.4381968   -0.9186212
H   4.3188937   -1.0317809   -1.6446256
H   5.4433495   -1.6196485   0.4314267
H   3.9706274   -1.5492532   1.3436945
H   3.9984968   0.7404465   1.3468831
H   6.5537792   -0.3134101   -0.7697993
H   4.4776851   2.7549548   0.4643883
H   5.9716659   2.9872429   -0.2722562
H   1.5349236   -1.3978858   3.2380003
C   -0.7934464797468552   -5.303190734701637   -1.2688245824529303
O   -1.8984386593234226   -5.328650722170616   -1.5970822131528226
O   0.3115456998297119   -5.277730747232657   -0.9405669517530378
