34

N   -4.5313482   1.2863376   -0.6615262
C   -3.9711106   0.3211016   -1.5891367
C   -2.7287853   -0.3776054   -1.0605514
O   -2.2625480   -1.3520451   -1.6241136
N   -2.2016486   0.1764598   0.0445743
C   -1.0077972   -0.3411828   0.6506970
C   0.2539913   0.1953055   -0.0451670
C   1.5585373   -0.4590673   0.3720982
C   2.7338617   0.0398614   -0.4510678
C   4.0481694   -0.6007506   -0.0499379
N   5.1350784   -0.1104538   -0.8829335
C   -1.0319477   0.0365476   2.1110660
O   -1.6153069   0.9864952   2.5605251
O   -0.3030004   -0.7928847   2.8682406
H   -5.0338639   2.0163273   -1.1431283
H   -5.1732123   0.8497244   -0.0151039
H   -4.6571320   -0.4708874   -1.9076083
H   -3.6564846   0.8386700   -2.4986324
H   -2.6525354   0.9949800   0.4291201
H   -1.0153156   -1.4297303   0.5579763
H   0.3005207   1.2788244   0.1043785
H   0.0905798   0.0258842   -1.1120812
H   1.4682427   -1.5448414   0.2573422
H   1.7539826   -0.2816344   1.4331714
H   2.8175074   1.1285155   -0.3430802
H   2.5607443   -0.1510736   -1.5140680
H   4.2084320   -0.4406273   1.0283262
H   3.9754253   -1.6830782   -0.1946452
H   5.2744289   0.8805267   -0.7315375
H   6.0052940   -0.5665573   -0.6447258
H   -0.3427589   -0.4531416   3.7713290
C   -1.1910949487441858   -3.591390578857652   -2.919227566133637
O   -2.0351566825439944   -3.5418752052943354   -3.703138924206567
O   -0.3470332149443772   -3.640905952420969   -2.135316208060707
