  36

 N         -0.8771         -0.9878         -2.4403
 C         -1.2808         0.2817         -1.8154
 C         -2.5116         0.0058         -0.9957
 C         -2.1691         -1.0383         0.0657
 C         -3.1274         1.2138         -0.3762
 C         -4.3544         0.7216         0.4057
 C         -0.1746         0.8367         -1.0146
 O         -0.3179         1.9254         -0.4061
 N         1.0925         0.1976         -0.8797
 C         2.1291         0.8084         -0.0736
 C         2.5284         -0.0459         1.1114
 C         3.0466         -1.3512         0.6789
 O         3.1606         -1.7172         -0.505
 N         3.4424         -2.2485         1.7249
 C         3.3037         1.0235         -0.928
 O         3.287         0.6948         -2.1217
 O         4.4341         1.5956         -0.3979
 H         -0.1542         -0.7306         -3.147
 H         -0.5793         -1.6878         -1.752
 H         -1.5778         0.9424         -2.654
 H         -3.3009         -0.4761         -1.622
 H         -2.1875         -2.0361         -0.4275
 H         -1.1694         -0.8541         0.502
 H         -2.9839         -1.0163         0.8259
 H         -3.5119         1.8961         -1.1395
 H         -2.4972         1.7134         0.3872
 H         -4.711         -0.2341         0.0054
 H         -4.1067         0.5712         1.477
 H         -5.1423         1.5201         0.3937
 H         1.2594         -0.7059         -1.3657
 H         1.7876         1.7719         0.3648
 H         1.6935         -0.1221         1.8356
 H         3.3458         0.495         1.6259
 H         3.1174         -3.231         1.6428
 H         4.015         -1.8804         2.4852
 H         5.0922         2.1485         -0.9619
