49

N   1.8736641   -0.5730384   -2.5172607
C   1.5084709   -1.5187547   -1.4896720
C   2.3709103   -1.3133047   -0.2464397
C   3.8571805   -1.4860948   -0.5004032
C   4.6975055   -1.3377513   0.7611558
N   4.5620643   -0.0658648   1.4384337
C   5.1133424   1.0691447   0.9026629
N   5.8626747   1.0150616   -0.1294721
N   4.7335820   2.2179655   1.5954038
C   0.0457332   -1.5523192   -1.0437579
O   -0.3825856   -2.4512653   -0.3392739
N   -0.7278373   -0.5286296   -1.4581770
C   -2.1080359   -0.4318330   -1.0805320
C   -2.2563966   0.1132819   0.3586254
C   -3.6424891   0.0146507   0.9166380
C   -4.4347088   1.1438781   1.0863359
C   -5.7229326   1.0384108   1.5897157
C   -6.2361460   -0.2039750   1.9283837
C   -5.4519897   -1.3378156   1.7662392
C   -4.1648434   -1.2278996   1.2665129
C   -2.7908264   0.4772864   -2.0710394
O   -2.2188494   1.3132964   -2.7220797
O   -4.1059690   0.2752417   -2.1275850
H   1.3086634   -0.6332837   -3.3504859
H   1.9146394   0.3813971   -2.1894742
H   1.7020071   -2.5280129   -1.8692959
H   2.0243125   -2.0169191   0.5149212
H   2.1729009   -0.3042026   0.1385715
H   4.0392278   -2.4830528   -0.9154452
H   4.2045564   -0.7670379   -1.2417318
H   4.4361938   -2.1157117   1.4841898
H   5.7509499   -1.4582698   0.5080819
H   3.7051354   0.0775148   1.9440706
H   6.2727934   1.9189689   -0.3338651
H   4.6784127   2.1033257   2.5957524
H   5.2643348   3.0344935   1.3429974
H   -0.3516355   0.1966907   -2.0459736
H   -2.5615565   -1.4239120   -1.1188747
H   -1.9017426   1.1464951   0.3772638
H   -1.5701794   -0.4860623   0.9597671
H   -4.0365454   2.1179547   0.8225835
H   -6.3259430   1.9291531   1.7191383
H   -7.2415212   -0.2891456   2.3222409
H   -5.8435626   -2.3113459   2.0354937
H   -3.5503030   -2.1143337   1.1490113
H   -4.4723564   0.9320247   -2.7333513
C   -0.8888115646845927   3.257299271972184   -4.23596615227884
O   0.11403037078112677   2.9378030670580055   -3.765180396847765
O   -1.891653500150312   3.576795476886362   -4.706751907709914
