  50

 N         -2.0553         -1.4782         0.308
 C         -1.603         -0.3089         -0.4341
 C         -1.8098         0.865         0.5269
 C         -3.2244         0.9848         0.8963
 C         -4.2159         1.5223         0.078
 C         -4.1281         2.0477         -1.1967
 C         -5.3016         2.5167         -1.766
 C         -6.489         2.4536         -1.0783
 C         -6.5449         1.9212         0.1983
 C         -5.3893         1.4512         0.7784
 N         -5.1837         0.9046         1.975
 C         -3.8651         0.6173         2.0544
 C         -0.1755         -0.4262         -0.7428
 O         0.4391         0.439         -1.4158
 N         0.5632         -1.5429         -0.2796
 C         1.9899         -1.6914         -0.5728
 C         2.7006         -1.5477         0.7554
 C         4.1975         -1.6749         0.6393
 C         4.7748         -0.6081         -0.2889
 N         4.4693         0.7031         0.2139
 C         5.0759         1.1252         1.4083
 N         6.1456         0.5753         1.8186
 N         4.5028         2.1722         2.1727
 C         2.1868         -3.0103         -1.1817
 O         1.2362         -3.7851         -1.3629
 O         3.4564         -3.3954         -1.5608
 H         -2.1147         -2.333         -0.2518
 H         -1.5516         -1.5559         1.2106
 H         -2.2331         -0.1882         -1.3232
 H         -1.1512         0.6985         1.394
 H         -1.4446         1.7557         -0.0136
 H         -3.1898         2.0954         -1.735
 H         -5.267         2.9425         -2.7803
 H         -7.3747         2.8277         -1.5548
 H         -7.4744         1.8734         0.7339
 H         -5.9006         0.7221         2.7304
 H         -3.4199         0.1646         2.9198
 H         0.1099         -2.3003         0.2895
 H         2.3031         -0.835         -1.2169
 H         2.3651         -2.2907         1.5064
 H         2.4863         -0.5445         1.1828
 H         4.6102         -1.4508         1.6514
 H         4.5566         -2.6641         0.3625
 H         5.8404         -0.8348         -0.4002
 H         4.3357         -0.7432         -1.3178
 H         3.8025         1.3014         -0.3274
 H         6.6545         -0.1961         1.3455
 H         4.1508         1.9416         3.1233
 H         4.4342         3.1307         1.8052
 H         3.7199         -4.3471         -1.7931
