  28

 N         1.4808         -0.7298         1.4973
 C         1.6109         0.1734         0.3787
 C         2.5709         -0.387         -0.6324
 O         2.6661         0.519         -1.6965
 C         3.9504         -0.3745         0.0403
 C         0.3108         0.549         -0.1734
 O         0.2912         1.3351         -1.1565
 N         -0.9473         0.0973         0.3106
 C         -2.2084         0.5267         -0.3063
 C         -2.9079         -0.7236         -0.8059
 S         -1.9044         -1.607         -2.0247
 C         -3.0665         1.1663         0.7059
 O         -2.6968         1.2861         1.8994
 O         -4.315         1.6571         0.3656
 H         1.2336         -1.6928         1.1975
 H         0.8226         -0.308         2.1738
 H         2.0857         1.1111         0.7805
 H         2.2998         -1.3904         -0.9857
 H         2.9461         1.3918         -1.3227
 H         3.9829         0.6015         0.5998
 H         4.7626         -0.3901         -0.6872
 H         3.9879         -1.1624         0.7976
 H         -0.9485         -0.5425         1.1096
 H         -2.0317         1.2068         -1.1442
 H         -3.0946         -1.3671         0.0905
 H         -3.8841         -0.4936         -1.254
 H         -2.3354         -2.9573         -2.0968
 H         -4.6617         2.5051         0.8392
