24

N   -1.1560628   -0.6033839   1.7862621
C   -1.4894665   -0.8428132   0.3923542
C   -2.8230369   -0.2642452   -0.0635790
O   -2.8171682   1.1438348   -0.0012874
C   -0.3831764   -0.3026828   -0.5144185
O   -0.6062727   0.0683801   -1.6576360
N   0.8363710   -0.2824983   0.0425086
C   1.9673022   0.2349129   -0.6587669
C   3.0719236   0.5535993   0.3061684
O   3.0222642   0.3834291   1.4932287
O   4.1416577   1.0494593   -0.3261031
H   -1.3809257   0.3571712   2.0202621
H   -1.7055896   -1.1957983   2.3927285
H   -1.5087399   -1.9269007   0.2288933
H   -3.0536139   -0.6158998   -1.0733588
H   -3.6107422   -0.6097311   0.6095924
H   -2.2790590   1.4398780   -0.7414133
H   0.9078671   -0.4794598   1.0320872
H   1.7001806   1.1371584   -1.2168118
H   2.3545214   -0.4697333   -1.4031249
H   4.8116659   1.2253233   0.3459141
C   -1.1172670687151471   0.9182868547920424   -4.276136193488684
O   -2.2342730046029744   0.667117194941598   -4.139679089745528
O   -0.0002611328273196545   1.1694565146424867   -4.41259329723184
