39

N   2.7539399   -1.8298991   2.2927111
C   2.2487142   -0.7345809   1.5017378
C   3.1849501   -0.2924774   0.3648861
C   2.7816289   1.0099670   -0.2939038
O   2.1523730   1.8742384   0.2958431
N   3.2224668   1.1803903   -1.5582456
C   0.9333103   -1.1757364   0.8743552
O   0.7001114   -2.3434796   0.6190598
N   0.0836319   -0.1750059   0.5633675
C   -1.0248286   -0.4269495   -0.3155994
C   -1.8090398   0.8722868   -0.5526412
C   -2.9579801   0.6718835   -1.5308548
C   -2.2919767   1.4806303   0.7687749
C   -3.1860680   0.5828192   1.6078765
C   -0.5127466   -0.9971629   -1.6303464
O   0.5021232   -0.6556799   -2.1774385
O   -1.3424304   -1.9122989   -2.1405567
H   2.5021496   -2.7020922   1.8419284
H   3.7575108   -1.7883632   2.3938739
H   2.0649303   0.1381176   2.1337250
H   4.1812972   -0.1281890   0.7892884
H   3.2779774   -1.0927236   -0.3738270
H   2.8701571   1.9811728   -2.0546981
H   3.4768862   0.3787230   -2.1058487
H   0.4528260   0.7653022   0.6204390
H   -1.6782037   -1.1808685   0.1271462
H   -1.1035572   1.5829551   -0.9999622
H   -3.6382116   -0.1144923   -1.1995280
H   -2.6048376   0.3985849   -2.5253838
H   -3.5302592   1.5962654   -1.6246758
H   -2.8264417   2.4028807   0.5220639
H   -1.4311690   1.7859539   1.3681569
H   -3.5373939   1.1160312   2.4924570
H   -2.6527738   -0.3035325   1.9566632
H   -4.0671858   0.2505232   1.0558164
H   -0.9518806   -2.2148935   -2.9696601
C   0.16396010772426206   -5.028256525303702   0.03210609386308727
O   1.1707737643883052   -5.3325853313991205   0.5044610859350622
O   -0.8428535489397808   -4.723927719208283   -0.4402488982088877
