41

N   0.2766503   -1.9219682   -0.5407283
C   0.4735982   -1.1520498   0.6794984
C   1.6838936   -0.2244744   0.6746474
C   3.0067624   -0.9697215   0.6129738
C   4.2287604   -0.0615360   0.6577602
C   4.3982490   0.8151251   -0.5778743
N   5.5879250   1.6479224   -0.6035356
C   -0.7823829   -0.3630840   1.0534550
O   -0.7823740   0.4516520   1.9588819
N   -1.8726668   -0.6598566   0.3209513
C   -3.1515964   -0.0931584   0.6216521
C   -3.2997860   1.3433409   0.0516415
O   -4.3703241   2.0280474   0.6494609
C   -3.3714135   1.3632641   -1.4624382
C   -4.2139473   -1.0183127   0.0904620
O   -4.0175104   -2.0077433   -0.5586230
O   -5.4538714   -0.5919771   0.3973332
H   0.5360904   -1.3769136   -1.3534143
H   0.8467876   -2.7543950   -0.5455777
H   0.5949395   -1.8689014   1.5002667
H   1.6405453   0.3941829   1.5735256
H   1.5848679   0.4592263   -0.1764195
H   3.0518616   -1.5809034   -0.2963261
H   3.0500964   -1.6712815   1.4533460
H   4.1785968   0.5768064   1.5475385
H   5.1295909   -0.6749972   0.7696633
H   3.5333690   1.4735126   -0.6929677
H   4.4116720   0.1773862   -1.4688334
H   6.4187809   1.0804885   -0.4924195
H   5.5788107   2.2992110   0.1709699
H   -1.7990856   -1.4286401   -0.3318489
H   -3.2708441   0.0032819   1.7057069
H   -2.3996489   1.8613971   0.3870837
H   -5.1794679   1.5429517   0.4691574
H   -3.3685347   2.3935036   -1.8173946
H   -2.5200624   0.8410514   -1.9023189
H   -4.2872568   0.8854791   -1.8225833
H   -6.0707747   -1.2178165   -0.0030725
C   -0.7823535407030567   2.3245650061554515   4.040274912132778
O   0.3369911779985396   2.118989514071791   4.225248201473174
O   -1.901698259404653   2.530140498239112   3.8553016227923833
