36

N   2.1517173   -2.2312762   -0.5744925
C   1.4736452   -1.0895442   0.0013522
C   2.3293686   0.1679945   -0.1595964
C   3.6525142   0.0384808   0.5634185
C   4.5848791   1.1782143   0.2919359
O   4.4088693   2.0640513   -0.5001985
O   5.6941836   1.1037315   1.0515676
C   0.1164574   -0.8334231   -0.6543171
O   -0.0968679   -1.1399652   -1.8100117
N   -0.7940871   -0.2163938   0.1359597
C   -2.0790637   0.2032264   -0.3448610
C   -3.2171806   -0.4618384   0.4398763
O   -3.0343462   -1.8486301   0.2646091
C   -4.5880214   -0.0140727   -0.0260489
C   -2.1787931   1.7097257   -0.2159891
O   -1.7826002   2.3221967   0.7390399
O   -2.7659001   2.2869103   -1.2679187
H   1.6994901   -3.0871265   -0.2800483
H   2.0256276   -2.1882427   -1.5810718
H   1.3230702   -1.2807720   1.0699052
H   1.7846257   1.0438385   0.2015134
H   2.5065785   0.3364435   -1.2246260
H   4.1507555   -0.8872348   0.2615173
H   3.5178484   -0.0389860   1.6463722
H   6.2440300   1.8577964   0.8064419
H   -0.5246186   0.0836855   1.0574311
H   -2.1449083   -0.0972244   -1.3907981
H   -3.0854804   -0.1913396   1.4984808
H   -3.7517431   -2.3066505   0.7044939
H   -4.7495651   1.0501459   0.1509888
H   -4.7146070   -0.2139514   -1.0911982
H   -5.3619936   -0.5566694   0.5215204
H   -2.7938841   3.2367997   -1.0929479
C   -0.5886682327831557   -1.8466676248509077   -4.474351039383071
O   0.47515134458721364   -2.2839742376891485   -4.554724126741172
O   -1.6524878101535254   -1.4093610120126665   -4.3939779520249695
