40

N   3.1369873   1.4936099   1.5414510
C   2.9125983   1.1759771   0.1548129
C   4.0124296   0.2805342   -0.3224925
C   5.2549603   0.0170197   0.1909299
N   5.9216238   -0.8714174   -0.6078935
C   5.0991775   -1.1395473   -1.5899315
N   3.9329080   -0.4652471   -1.4651303
C   1.5587179   0.5687998   -0.2367762
O   1.2788476   0.3544992   -1.4072124
N   0.7004420   0.3069685   0.7634791
C   -0.5508973   -0.3677122   0.5070848
C   -1.5814684   0.5420722   -0.1729427
C   -3.0057982   0.1087505   0.0315695
C   -3.7963785   -0.2975029   -1.0367389
C   -5.1148100   -0.6797720   -0.8406018
C   -5.6631097   -0.6657440   0.4328227
C   -4.8854440   -0.2604583   1.5077529
C   -3.5700981   0.1255283   1.3045959
C   -0.2572605   -1.6866062   -0.2085749
O   0.6668621   -2.3951877   0.0751392
O   -1.1656271   -1.9975947   -1.1348626
H   2.4714374   2.1422829   1.9301044
H   3.2565699   0.6792882   2.1255687
H   2.9487833   2.1160182   -0.4121770
H   5.7003005   0.4309639   1.0806412
H   5.2931279   -1.8117827   -2.4111452
H   3.1096782   -0.5022792   -2.0460766
H   1.0468649   0.3693539   1.7037907
H   -0.9479396   -0.6673589   1.4811858
H   -1.4465173   1.5360571   0.2612288
H   -1.3468859   0.6220026   -1.2330157
H   -3.3673637   -0.3211945   -2.0312289
H   -5.7154723   -0.9920883   -1.6863603
H   -6.6923217   -0.9654273   0.5873499
H   -5.3064620   -0.2380304   2.5056585
H   -2.9766450   0.4572940   2.1511278
H   -0.9118174   -2.8572689   -1.4931327
C   2.8257103115295905   -4.0505090870085585   0.7379253686000615
O   3.1790794847463832   -3.2776433890633587   1.5171672054900986
O   2.4723411383127973   -4.823374784953758   -0.041316468289975816
