  44

 N         -2.8705         -1.0877         -0.0739
 C         -2.0987         -0.4295         -1.0844
 C         -2.1708         1.0646         -0.8016
 C         -3.6461         1.4292         -0.8723
 C         -3.8836         2.8538         -0.6183
 O         -2.9134         3.6024         -0.3846
 N         -5.2037         3.3483         -0.6435
 C         -0.6936         -0.9133         -1.1316
 O         0.1487         -0.4643         -1.9484
 N         -0.2598         -1.9233         -0.228
 C         1.0903         -2.4458         -0.2121
 C         1.6875         -2.1716         1.1529
 C         1.7231         -0.7079         1.4444
 C         2.6212         0.1958         0.9137
 C         3.6695         0.0722         0.0368
 C         4.4294         1.1564         -0.3426
 C         4.1338         2.4116         0.1714
 C         3.0886         2.5755         1.0545
 C         2.3491         1.4677         1.4121
 N         1.2984         1.3166         2.2311
 C         0.9041         0.0337         2.2706
 C         1.1105         -3.9176         -0.4146
 O         0.035         -4.5468         -0.5728
 O         2.282         -4.6553         -0.4391
 H         -2.9569         -2.1145         -0.2107
 H         -2.6826         -0.7868         0.8911
 H         -2.5872         -0.5957         -2.0625
 H         -1.8289         1.1878         0.2495
 H         -1.5593         1.6544         -1.4921
 H         -4.0808         1.0874         -1.8491
 H         -4.1731         0.8358         -0.096
 H         -5.9725         2.8022         -1.0541
 H         -5.3912         4.2959         -0.2306
 H         -0.9747         -2.302         0.4628
 H         1.6594         -1.9084         -1.0157
 H         1.034         -2.6932         1.8874
 H         2.6885         -2.6438         1.2534
 H         3.8616         -0.9403         -0.3404
 H         5.245         1.0067         -1.0365
 H         4.7636         3.2422         -0.1578
 H         2.9001         3.5718         1.4249
 H         0.8515         2.1149         2.7676
 H         0.0907         -0.3944         2.8368
 H         2.2817         -5.6845         -0.5108
