35

N   2.0740481   -0.0620656   1.1896070
C   2.0297735   0.3070416   -0.2124158
C   2.7776364   -0.6166047   -1.1604284
C   4.2561535   -0.5934909   -0.9248130
O   4.8355406   0.1420609   -0.1685084
O   4.8970719   -1.5050812   -1.6721760
C   0.5978016   0.4957218   -0.7117970
O   0.3412198   0.5558475   -1.9013237
N   -0.3166561   0.6133857   0.2685296
C   -1.6793061   0.9669952   -0.0019276
C   -2.6579835   -0.2235458   0.1051753
C   -2.3124716   -1.2836088   -0.9271838
C   -2.6836728   -0.8075572   1.5091679
C   -2.0927198   2.0761946   0.9358659
O   -1.4719453   2.4410749   1.8966288
O   -3.2745479   2.6039475   0.5873232
H   2.9945408   0.1289414   1.5610138
H   1.8961208   -1.0515079   1.3101458
H   2.4847543   1.2998342   -0.2902502
H   2.4242969   -1.6484143   -1.0703966
H   2.5819207   -0.3267072   -2.1959501
H   5.8377728   -1.4155901   -1.4751112
H   0.0438286   0.6746510   1.2111740
H   -1.7224869   1.3464935   -1.0265473
H   -3.6476062   0.1804230   -0.1265381
H   -1.3274265   -1.7113701   -0.7290695
H   -2.2947261   -0.8720268   -1.9368475
H   -3.0417332   -2.0951741   -0.8938663
H   -1.7014882   -1.2004371   1.7831367
H   -3.3958444   -1.6323616   1.5643011
H   -2.9700756   -0.0689085   2.2609637
H   -3.4814899   3.2821392   1.2421176
C   -0.24844476231469254   0.6940256349042081   -4.635039578979492
O   0.8659024201783208   0.5331281910167118   -4.8835378071831395
O   -1.362791944807706   0.8549230787917046   -4.386541350775843
