  34

 N         0.698         0.6852         -2.3831
 C         1.2148         -0.5978         -2.0088
 C         2.5709         -0.504         -1.3479
 C         2.4207         0.3457         -0.1002
 S         4.0178         0.5039         0.7632
 C         3.7668         1.5238         2.2335
 C         0.2633         -1.2254         -1.0508
 O         0.5364         -2.3634         -0.5706
 N         -0.9398         -0.5859         -0.6607
 C         -1.8164         -1.2568         0.2756
 C         -1.8905         -0.5239         1.5929
 C         -2.3865         0.8396         1.5132
 O         -2.465         1.4972         2.5853
 N         -2.8011         1.5292         0.342
 C         -3.1163         -1.4487         -0.3634
 O         -3.3266         -1.062         -1.5286
 O         -4.1572         -2.0642         0.2991
 H         1.1565         1.1228         -3.1969
 H         0.5063         1.3316         -1.6042
 H         1.2842         -1.2352         -2.9354
 H         2.902         -1.5346         -1.074
 H         3.2795         -0.0727         -2.0596
 H         1.704         -0.1035         0.6098
 H         2.1348         1.3726         -0.4044
 H         4.7717         1.8191         2.6017
 H         3.1816         1.0083         3.0223
 H         3.2228         2.471         2.0116
 H         -1.1889         0.3672         -1.0524
 H         -1.3313         -2.2322         0.5256
 H         -0.8577         -0.5191         2.0212
 H         -2.5153         -1.0967         2.308
 H         -3.709         1.242         -0.0837
 H         -2.2465         2.2944         -0.0985
 H         -4.8841         -2.562         -0.1817
