39

N   2.7460823   -1.7386080   -0.4433282
C   2.7489785   -0.4671168   0.2534304
C   3.0713186   0.6349527   -0.7713196
O   4.2636943   0.2983898   -1.4651383
C   3.1616010   2.0181720   -0.1703860
C   1.3985733   -0.1881470   0.9079268
O   1.2830163   0.5846443   1.8425722
N   0.3723852   -0.8364094   0.3244324
C   -0.9861066   -0.7154253   0.7762475
C   -1.8746038   0.0186082   -0.2483905
C   -1.3400591   1.4246432   -0.4686843
C   -3.3386053   0.0190096   0.1848583
C   -4.2759212   0.6696844   -0.8185304
C   -1.5141501   -2.1112304   1.0313956
O   -1.3602203   -3.0368598   0.2807608
O   -2.1840535   -2.2121786   2.1861718
H   3.5088016   -1.7518681   -1.1083941
H   2.8695046   -2.5119980   0.1949073
H   3.4886275   -0.3982247   1.0634407
H   2.2901947   0.6054426   -1.5373749
H   5.0079943   0.5547017   -0.9158113
H   2.2424889   2.2928307   0.3445983
H   3.3688545   2.7461638   -0.9552409
H   3.9674127   2.0615197   0.5687172
H   0.6149189   -1.5151256   -0.3858335
H   -0.9670961   -0.1538647   1.7116258
H   -1.7975399   -0.5432458   -1.1877783
H   -1.4481632   2.0256951   0.4376397
H   -1.8735344   1.9250353   -1.2765893
H   -0.2829341   1.4077607   -0.7331593
H   -3.6689779   -1.0103320   0.3495020
H   -3.4229948   0.5226897   1.1541802
H   -5.3154165   0.5570944   -0.5064726
H   -4.0817979   1.7374171   -0.9275422
H   -4.1745540   0.2097317   -1.8048201
H   -2.4977186   -3.1237524   2.2493870
C   1.0174215340496164   2.360818174814962   3.990749517337786
O   2.157601711209823   2.53227525021176   3.989952706635045
O   -0.12275864311059004   2.189361099418164   3.9915463280405272
