  39

 N         -1.9975         -0.893         2.5271
 C         -1.1045         -1.3684         1.488
 C         -1.8976         -1.8577         0.2967
 C         -2.7548         -0.7991         -0.292
 C         -4.0407         -0.6188         0.1667
 C         -4.8585         0.3498         -0.3582
 C         -4.3774         1.1591         -1.3685
 C         -3.0967         1.0067         -1.8514
 C         -2.3025         0.0215         -1.299
 C         -0.1198         -0.3276         1.1729
 O         -0.2084         0.8238         1.7235
 N         0.976         -0.4739         0.2779
 C         1.9056         0.6097         0.0285
 C         3.2801         0.2883         0.598
 C         3.8647         -0.9592         -0.0139
 C         4.1624         1.4885         0.3309
 C         1.9708         0.8574         -1.4267
 O         1.3332         0.2216         -2.3004
 O         2.8031         1.8765         -1.8838
 H         -2.4382         0.018         2.3129
 H         -1.5169         -0.8023         3.4466
 H         -0.617         -2.2887         1.9258
 H         -2.5272         -2.7216         0.5921
 H         -1.2446         -2.2211         -0.5168
 H         -4.3823         -1.2688         0.9562
 H         -5.8614         0.4815         0.0082
 H         -5.0077         1.9415         -1.8074
 H         -2.7408         1.6643         -2.6551
 H         -1.3087         -0.0705         -1.7007
 H         1.0904         -1.3932         -0.1975
 H         1.6015         1.5428         0.543
 H         3.1658         0.1667         1.6763
 H         3.5531         -1.1186         -1.0526
 H         4.9763         -0.8444         -0.0285
 H         3.6646         -1.8526         0.641
 H         4.7093         1.381         -0.6254
 H         3.5172         2.4008         0.338
 H         4.8488         1.5898         1.1996
 H         2.9802         1.9903         -2.8722
