  43

 N         3.3036         1.5297         0.9361
 C         2.3378         0.8739         0.1081
 C         2.9208         -0.2979         -0.6498
 C         3.4764         -1.3526         0.2517
 C         3.9102         0.2111         -1.6456
 C         5.038         0.9624         -0.9735
 C         1.1456         0.4766         0.897
 O         1.1359         0.7515         2.123
 N         0.0368         -0.1893         0.3311
 C         -1.0987         -0.553         1.1468
 C         -2.3484         0.1837         0.6944
 C         -2.7108         -0.1128         -0.712
 C         -3.9154         0.6046         -1.2295
 C         -5.1944         0.3377         -0.5096
 N         -5.2239         0.707         0.8734
 C         -1.2616         -2.0095         1.11
 O         -0.4889         -2.7486         0.4469
 O         -2.2839         -2.6432         1.8109
 H         3.2765         1.1614         1.903
 H         3.147         2.5628         0.9298
 H         2.0293         1.6168         -0.6767
 H         2.0718         -0.7564         -1.2106
 H         2.6845         -2.0393         0.5645
 H         4.238         -1.943         -0.2847
 H         3.9457         -0.9316         1.1616
 H         3.417         0.8732         -2.371
 H         4.3672         -0.6674         -2.1493
 H         4.7451         2.0471         -0.8842
 H         5.9358         0.9766         -1.6405
 H         5.2834         0.5771         0.024
 H         0.0644         -0.4104         -0.6969
 H         -0.9073         -0.223         2.187
 H         -2.2151         1.2627         0.859
 H         -3.1774         -0.1531         1.3808
 H         -2.8328         -1.1993         -0.9235
 H         -1.8462         0.1887         -1.3812
 H         -3.7574         1.722         -1.1923
 H         -4.1009         0.36         -2.3206
 H         -6.0406         0.8952         -1.003
 H         -5.4318         -0.7525         -0.6084
 H         -5.5602         1.6717         0.9668
 H         -5.8121         0.0817         1.4625
 H         -2.3028         -3.6522         1.9398
