39

N   -2.5013488   -0.3974839   -2.7086618
C   -1.8472577   -0.0028421   -1.4794501
C   -2.6024334   -0.4336970   -0.1963299
C   -2.6234487   -1.9442004   -0.0220617
C   -2.1140931   0.2414954   1.0845425
C   -2.1713039   1.7612434   1.0848004
C   -0.4409851   -0.5767847   -1.5113076
O   -0.1706822   -1.6162415   -2.0806102
N   0.5046246   0.1522415   -0.8635049
C   1.8247922   -0.3634788   -0.6955980
C   2.8000710   0.7567013   -0.5251663
C   2.6667553   2.1076670   -0.7019388
N   3.8534820   2.7428980   -0.4578067
C   4.6960573   1.7972381   -0.1401893
N   4.1090530   0.5748538   -0.1663361
C   1.8918567   -1.3522928   0.4680026
O   1.0390634   -1.5326692   1.2846691
O   3.0613096   -2.0212358   0.4665070
H   -3.5008589   -0.4681916   -2.5793625
H   -2.1490702   -1.3038183   -2.9924740
H   -1.7603925   1.0886484   -1.4617365
H   -3.6320430   -0.0892709   -0.3681251
H   -3.3145023   -2.2250190   0.7749396
H   -1.6338168   -2.3194990   0.2463724
H   -2.9358644   -2.4525415   -0.9351259
H   -1.1047091   -0.1080448   1.3199552
H   -2.7415316   -0.1285146   1.9011978
H   -1.4738295   2.2193407   0.3782346
H   -1.9285455   2.1586640   2.0716009
H   -3.1691737   2.1197046   0.8193025
H   0.2168729   0.9201882   -0.2821142
H   2.0579911   -0.9467688   -1.5931048
H   1.7891366   2.6507622   -1.0134289
H   5.7344152   1.9335690   0.1190231
H   4.5317928   -0.3111999   0.0490694
H   3.0385166   -2.6313211   1.2148160
C   -0.9600156418201602   -1.9554993053478844   3.1990613499234275
O   -1.6183724368359322   -1.1590934817047864   2.687482329122223
O   -0.3016588468043879   -2.751905128990982   3.710640370724632
