  31

 N         -1.6873         1.9349         -2.2059
 C         -1.4757         1.1719         -0.9565
 C         -2.7552         0.4987         -0.5814
 C         -2.6961         -0.3172         0.6477
 O         -2.6276         -1.5671         0.6346
 N         -2.7189         0.3791         1.9112
 C         -0.3212         0.2849         -1.0897
 O         0.2162         0.1657         -2.2351
 N         0.2357         -0.4408         -0.0343
 C         1.3862         -1.2816         -0.2671
 C         2.599         -0.674         0.463
 C         2.9057         0.6879         -0.0193
 O         3.3511         0.9105         -1.1575
 N         2.6802         1.7765         0.8621
 C         1.1599         -2.6181         0.3118
 O         0.0933         -2.8895         0.9199
 O         2.1494         -3.6151         0.1875
 H         -0.8777         2.593         -2.2602
 H         -2.551         2.5134         -2.0009
 H         -1.2326         1.9811         -0.2092
 H         -3.5167         1.3113         -0.3936
 H         -3.1979         -0.0794         -1.4397
 H         -2.8125         1.4113         1.9818
 H         -2.6399         -0.1655         2.7942
 H         -0.1716         -0.3781         0.9172
 H         1.6328         -1.355         -1.3413
 H         2.365         -0.685         1.5422
 H         3.4759         -1.3539         0.3155
 H         2.8924         1.6853         1.8937
 H         2.3081         2.675         0.5183
 H         1.8306         -4.56         0.2908
