36

N   -4.1534458   1.4049996   -2.6434588
C   -4.1189526   0.8023341   -1.3324346
C   -2.8437411   -0.0013070   -1.1768982
O   -2.2704371   -0.4922777   -2.1332464
N   -2.4106716   -0.1660618   0.0891747
C   -1.2779619   -0.9992069   0.3887866
C   0.0521309   -0.2846680   0.0914650
C   1.2438606   -1.2104999   -0.0797124
C   2.5227804   -0.4594356   -0.4021012
N   2.9308279   0.3614702   0.7124165
C   4.0112072   1.2145783   0.5962676
N   4.6798390   1.4900826   -0.4528078
N   4.3514375   1.7960586   1.8092401
C   -1.3874598   -1.3899186   1.8419161
O   -2.1083757   -0.8501889   2.6388667
O   -0.5709870   -2.3972320   2.1687148
H   -5.0998766   1.5053008   -2.9781712
H   -3.6523397   0.7976647   -3.2822287
H   -4.1683961   1.5655602   -0.5486201
H   -4.9407925   0.0952097   -1.1369064
H   -2.9074697   0.2301576   0.8704690
H   -1.3284648   -1.9022834   -0.2269977
H   -0.1072148   0.2561631   -0.8431759
H   0.2456468   0.4640302   0.8639344
H   1.0394216   -1.9090203   -0.8958790
H   1.3979606   -1.8213474   0.8142374
H   3.3067638   -1.1741785   -0.6878639
H   2.3547159   0.1934312   -1.2636195
H   2.8717762   -0.0921619   1.6109103
H   4.4108123   0.9053512   -1.2348459
H   3.5660908   2.1173317   2.3530004
H   5.0514773   2.5096069   1.6838634
H   -0.6899623   -2.5597430   3.1133045
C   -0.9528554465552281   -1.6206388952802306   -4.331149855452834
O   -1.7369658362298461   -1.1580599455624823   -5.038681206053175
O   -0.16874505688061014   -2.0832178449979795   -3.6236185048524927
