  30

 N         2.0238         -1.6026         -1.2665
 C         1.3404         -0.6802         -0.3587
 C         1.6989         0.7448         -0.6528
 C         3.1569         1.0592         -0.5305
 C         3.7026         0.8275         0.8247
 O         4.9486         1.0071         1.0539
 O         2.9367         0.4159         1.903
 C         -0.1402         -0.8493         -0.5722
 O         -0.584         -1.6607         -1.4157
 N         -1.0322         -0.0683         0.2041
 C         -2.4551         -0.232         -0.0033
 C         -3.133         -0.6755         1.2926
 O         -2.5732         -1.9008         1.6847
 C         -3.0207         1.0634         -0.4526
 O         -2.2713         2.0857         -0.5939
 O         -4.3643         1.23         -0.7369
 H         1.832         -2.5557         -0.9141
 H         1.6894         -1.5102         -2.2487
 H         1.6064         -0.998         0.6638
 H         1.2752         1.0572         -1.6319
 H         1.1652         1.375         0.121
 H         3.3346         2.1284         -0.8243
 H         3.6782         0.4115         -1.292
 H         3.0779         0.777         2.8444
 H         -0.676         0.6144         0.9151
 H         -2.6281         -0.9831         -0.8064
 H         -2.9312         0.0824         2.05
 H         -4.2272         -0.735         1.1367
 H         -2.6165         -2.5624         0.9346
 H         -4.8138         2.134         -0.8622
