54

N   -2.6020870   3.9877724   -0.6654779
C   -2.6262120   2.6053508   -0.2146531
C   -3.1741975   1.7016067   -1.3196562
C   -3.0775704   0.2516546   -0.9753084
C   -2.3136517   -0.7419376   -1.6717447
C   -1.5241811   -0.7224091   -2.8247409
C   -0.8524752   -1.8689311   -3.1973090
C   -0.9576641   -3.0467270   -2.4438997
C   -1.7360708   -3.1007709   -1.3039250
C   -2.4071317   -1.9421772   -0.9294959
N   -3.2034320   -1.6843167   0.1523249
C   -3.5947917   -0.3697138   0.1270484
C   -1.2829851   2.1219080   0.3328108
O   -1.0540622   2.0917553   1.5308971
N   -0.3572917   1.7869593   -0.5909548
C   0.8871232   1.1726333   -0.2214213
C   0.6828792   -0.3118770   0.1812841
C   1.8173970   -0.9001737   0.9327541
C   2.2354333   -0.5245463   2.2523218
C   1.7568230   0.4002783   3.1852901
C   2.4055446   0.5090583   4.3991725
C   3.5195186   -0.2865721   4.7020288
C   4.0097741   -1.2114765   3.8002338
C   3.3567268   -1.3199828   2.5773539
N   3.5987445   -2.1357751   1.5030533
C   2.6717839   -1.8815570   0.5220459
C   1.8091973   1.2711478   -1.4075285
O   1.4371673   1.4132714   -2.5444964
O   3.0938114   1.1468559   -1.0716283
H   -1.9224619   4.1086030   -1.4066711
H   -2.3240750   4.5982535   0.0921636
H   -3.2963590   2.5530999   0.6458306
H   -2.6276616   1.8893640   -2.2504025
H   -4.2013761   2.0126620   -1.5228639
H   -1.4237566   0.1793972   -3.4175558
H   -0.2308266   -1.8596090   -4.0837915
H   -0.4189350   -3.9308965   -2.7616698
H   -1.8104064   -4.0103780   -0.7200264
H   -3.4312729   -2.3387867   0.8761083
H   -4.2067381   0.0319105   0.9191568
H   -0.6068678   1.7121566   -1.5631706
H   1.3179559   1.7093204   0.6242176
H   -0.2150014   -0.3154936   0.8036017
H   0.4540687   -0.8952473   -0.7129840
H   0.8907508   1.0132977   2.9587801
H   2.0489825   1.2199830   5.1343481
H   4.0050465   -0.1757608   5.6639714
H   4.8688715   -1.8266005   4.0410149
H   4.3219364   -2.8267446   1.4499863
H   2.6879371   -2.4264572   -0.4090027
H   3.6020688   1.1668182   -1.8923205
C   -0.5287228492722925   2.0225599515194097   4.280302593979678
O   -1.603792781111316   2.379858162986996   4.494712551159148
O   0.5463470825667308   1.6652617400518235   4.065892636800207
