43

N   -2.9965716   -0.1141640   -2.0533483
C   -2.4783764   0.0297298   -0.7078476
C   -3.0849483   -1.0264955   0.2148267
C   -4.5921465   -0.9012362   0.3168566
C   -5.1735571   -1.8882861   1.3059172
O   -4.5890915   -2.2302845   2.3130740
N   -6.4153291   -2.3410461   1.0026695
C   -0.9579401   -0.1094050   -0.6583818
O   -0.3522794   -0.7933928   -1.4658580
N   -0.3410041   0.5354974   0.3523274
C   1.0709264   0.3989202   0.5832188
C   1.8832051   1.3057180   -0.3688176
C   3.3593043   1.0531379   -0.3491982
C   3.8750720   -0.1083473   -0.9183437
C   5.2359107   -0.3650308   -0.8902192
C   6.1038340   0.5402911   -0.2954100
C   5.6012330   1.7029827   0.2677420
C   4.2374303   1.9545883   0.2406436
C   1.3324675   0.7643150   2.0233591
O   0.6187911   1.4844599   2.6723182
O   2.4563256   0.2255436   2.4907287
H   -2.5020420   -0.8850281   -2.4917776
H   -2.7654864   0.7034716   -2.6029617
H   -2.7588984   1.0206267   -0.3332747
H   -2.8184323   -2.0156177   -0.1703876
H   -2.6513078   -0.9571408   1.2138980
H   -4.8562926   0.0986115   0.6809433
H   -5.0467147   -1.0029352   -0.6696627
H   -6.8624822   -2.9790150   1.6364139
H   -6.8767176   -2.0909815   0.1494756
H   -0.8585867   1.0854329   1.0191911
H   1.3667578   -0.6370517   0.4086993
H   1.4840516   1.1043929   -1.3645479
H   1.6636430   2.3479923   -0.1261686
H   3.1997553   -0.8132864   -1.3918648
H   5.6219664   -1.2724665   -1.3386359
H   7.1683964   0.3416356   -0.2761036
H   6.2723896   2.4179784   0.7282543
H   3.8479060   2.8656453   0.6823367
H   2.5787386   0.5502402   3.3920156
C   -1.0412223169230126   3.159519067052017   4.181798985737462
O   -1.7558346980315012   3.2615260136724   3.282725725314462
O   -0.3266099358145236   3.0575121204316336   5.080872246160461
