34

N   -2.2431680   1.8391581   -1.5297292
C   -1.9770329   1.0414342   -0.3616412
C   -2.8287273   -0.2380759   -0.2732167
O   -2.7698329   -0.6703258   1.0764069
C   -2.4066363   -1.3209414   -1.2421861
C   -0.4913339   0.7098582   -0.3157774
O   0.2501046   0.9423166   -1.2648733
N   -0.0589537   0.1400481   0.8172929
C   1.2970753   -0.3205998   0.9381212
C   2.3122614   0.8073605   1.2415994
C   3.5031397   0.8674254   0.2973017
O   4.6433742   0.9173548   0.7095254
N   3.1750008   0.8767233   -1.0124809
C   1.3300035   -1.3928589   1.9997396
O   0.3858706   -1.7342962   2.6602241
O   2.5471056   -1.9229719   2.1147518
H   -3.1422855   1.6326544   -1.9380115
H   -1.5117851   1.6980880   -2.2149886
H   -2.2080222   1.6075672   0.5496837
H   -3.8584360   0.0708335   -0.5045654
H   -3.0260338   -1.5920514   1.1272688
H   -1.4092190   -1.6935041   -1.0003334
H   -2.3905523   -0.9361736   -2.2629482
H   -3.1051783   -2.1605467   -1.2142516
H   -0.7384630   -0.1900610   1.4918759
H   1.5925537   -0.8004675   -0.0009302
H   1.7767776   1.7556700   1.1682809
H   2.7140138   0.7280903   2.2494134
H   3.9174908   0.9786229   -1.6805078
H   2.2079025   0.9432798   -1.3073924
H   2.5130860   -2.5836112   2.8173483
C   -1.8138958287210043   -2.529822243052988   4.199108752563827
O   -2.474373044759952   -1.757690480730482   3.6541395894856015
O   -1.153418612682056   -3.301954005375494   4.744077915642053
