34

N   -2.1885202   0.7200066   -0.3642314
C   -1.9960400   0.3783842   1.0481076
C   -2.7145630   -0.9695751   1.3069987
C   -3.4026775   -1.2910496   -0.0200862
C   -2.5555043   -0.5286578   -1.0316300
C   -0.5187949   0.2832352   1.4185905
O   -0.1524208   -0.1908178   2.4759982
N   0.3105417   0.7823512   0.4773348
C   1.7452784   0.6689371   0.5907711
C   2.3395498   -0.2671313   -0.4054740
C   2.7145190   -1.5803033   -0.3126561
N   3.1347211   -2.0463225   -1.5264200
C   3.0196141   -1.0326934   -2.3471018
N   2.5361322   0.0655479   -1.7218116
C   2.3417490   2.0557717   0.4243977
O   2.2637495   2.6951649   -0.5949285
O   2.9545895   2.4975334   1.5190763
H   -2.9429606   1.3855743   -0.4542374
H   -2.4024100   1.1721413   1.6792161
H   -1.9813033   -1.7305021   1.5745955
H   -3.4151538   -0.9004314   2.1375094
H   -3.4524574   -2.3620464   -0.2201576
H   -4.4247420   -0.9023442   -0.0311529
H   -1.6415888   -1.0884772   -1.2570326
H   -3.0585977   -0.3235125   -1.9766637
H   -0.1351714   1.0852114   -0.3793551
H   1.9423580   0.2961598   1.5954122
H   2.6935965   -2.2073485   0.5648499
H   3.2761842   -1.0366468   -3.3951086
H   2.4129019   0.9923399   -2.0963279
H   3.2974209   3.3794009   1.3218173
C   2.082624841252901   4.179916406807291   -2.9619322644725505
O   1.495837552348441   3.31952821485165   -3.456727006485292
O   2.6694121301573617   5.040304598762933   -2.467137522459809
