  20

 N         3.636         -0.3259         0.9118
 C         2.3852         0.2656         1.2369
 C         1.2636         -0.242         0.3838
 O         1.4894         -1.099         -0.5021
 N         -0.0687         0.2183         0.5429
 C         -1.1799         -0.259         -0.2741
 C         -2.2705         -0.8793         0.5579
 C         -1.7044         0.8976         -1.0472
 O         -1.2142         2.0518         -0.9512
 O         -2.7883         0.6227         -1.8977
 H         3.6094         -1.2324         0.4423
 H         4.3976         0.3091         0.6693
 H         2.1909         0.1195         2.3129
 H         2.4466         1.3564         1.0688
 H         -0.234         0.9311         1.2855
 H         -0.8425         -1.0107         -1.0144
 H         -2.2427         -1.9928         0.526
 H         -3.2436         -0.5965         0.0598
 H         -2.3083         -0.5249         1.5882
 H         -3.3216         1.3903         -2.2849
