30

N   3.2990589   0.5971434   -0.8563583
C   2.1712301   -0.1252540   -0.3060938
C   2.5115332   -0.6114747   1.0981192
C   0.9163088   0.7410215   -0.2140789
O   0.9951059   1.9427298   -0.0194622
N   -0.2840921   0.1257319   -0.3150083
C   -1.4962331   0.8997300   -0.1641010
C   -2.5919320   -0.0787410   -0.5983975
C   -2.0203358   -1.4357721   -0.2045293
C   -0.5359547   -1.2947451   -0.5178069
C   -1.7422272   1.4012364   1.2471034
O   -2.5056838   2.2893060   1.5041366
O   -1.0726392   0.7148533   2.1847682
H   3.1307540   0.8079823   -1.8321745
H   3.3499040   1.4973441   -0.3905384
H   1.9780657   -0.9890586   -0.9476348
H   1.6846790   -1.1584280   1.5547237
H   2.7335248   0.2464235   1.7359827
H   3.3913515   -1.2530056   1.0609246
H   -1.4668259   1.7950106   -0.7848475
H   -2.7119797   -0.0137455   -1.6816007
H   -3.5530668   0.1477677   -0.1397841
H   -2.4798777   -2.2662142   -0.7392233
H   -2.1567936   -1.6044253   0.8652015
H   -0.3224953   -1.5830721   -1.5531302
H   0.0823094   -1.9082916   0.1379266
H   -1.3035886   1.1160471   3.0316835
C   1.1759646155514658   4.700945769947319   0.4272309700134271
O   2.3265561520848097   4.627226936808458   0.41657030875421047
O   0.025373079018121913   4.774664603086181   0.43789163127264374
