38

N   -2.1652369   -0.1205884   1.6240565
C   -1.7410989   -1.1035054   0.6524512
C   -2.5771392   -0.9728140   -0.6173429
C   -4.0407300   -1.2733363   -0.3695498
C   -4.9201446   -0.8856825   -1.5189292
O   -4.6077152   -0.1815259   -2.4410351
O   -6.1543148   -1.4078917   -1.3993296
C   -0.2642697   -1.1264397   0.2524296
O   0.1872189   -2.0256575   -0.4347407
N   0.4903855   -0.0999774   0.6922666
C   1.8931965   -0.0141634   0.3976347
C   2.1193113   0.5174631   -1.0276172
C   3.5618803   0.5502033   -1.5073551
C   4.4118307   1.7163315   -1.0842469
O   5.6110585   1.7179417   -1.0612295
O   3.6864872   2.8108495   -0.7810868
C   2.5231468   0.8525590   1.4600591
O   1.9175461   1.6060485   2.1742862
O   3.8462717   0.6853431   1.5164822
H   -1.6891372   -0.1939568   2.5105789
H   -2.1033335   0.8272418   1.2788552
H   -1.9194998   -2.0962327   1.0799311
H   -2.4761587   0.0425120   -1.0130043
H   -2.1699494   -1.6441907   -1.3733366
H   -4.3964258   -0.7257492   0.5092187
H   -4.2034811   -2.3306935   -0.1471876
H   -6.6604820   -1.0920573   -2.1578460
H   0.1065091   0.5994247   1.3058906
H   2.3304501   -1.0148286   0.4597538
H   1.5541518   -0.1606267   -1.6681007
H   1.6643366   1.5050448   -1.1127341
H   4.1069337   -0.3545009   -1.2360365
H   3.5653316   0.5850773   -2.6017788
H   4.3198080   3.5105025   -0.5797081
H   4.1930624   1.2975761   2.1777011
C   0.5067386614194889   3.3613776987481354   3.8381497086052354
O   -0.4793640197218185   3.055148148629661   3.3250863939157504
O   1.4928413425607965   3.66760724886661   4.35121302329472
