29

N   4.3721215   -0.9161392   -0.5286912
C   3.5670456   -0.0336031   0.2816319
C   2.1530448   0.0068532   -0.2621714
O   1.9080267   -0.2096325   -1.4360172
N   1.1976825   0.3355999   0.6300514
C   -0.1722753   0.5190351   0.2362262
C   -0.8858184   -0.8346574   0.0844276
C   -2.2975660   -0.7708044   -0.4669517
C   -3.3543150   -0.5657977   0.5799583
O   -3.1928274   -0.6398607   1.7683199
O   -4.5534259   -0.3190015   0.0287928
C   -0.8195177   1.4108907   1.2680350
O   -0.3840549   1.6014016   2.3705284
O   -1.9407048   1.9775759   0.8106448
H   5.3349597   -0.6159992   -0.5548399
H   4.0062065   -0.8951836   -1.4740874
H   3.9113416   1.0126838   0.2906675
H   3.5479888   -0.3667009   1.3246605
H   1.4205139   0.5194645   1.5951077
H   -0.1974692   1.0283674   -0.7313002
H   -0.8878191   -1.3434983   1.0500695
H   -0.2591624   -1.4086340   -0.5980236
H   -2.5470292   -1.7135885   -0.9633029
H   -2.4118246   0.0002468   -1.2320232
H   -5.1829069   -0.2422571   0.7561763
H   -2.3324149   2.4632388   1.5477106
C   -2.8165148724963935   -0.8124487793602705   4.537544021754426
O   -1.6941876269095417   -1.0184788440158863   4.3721893536273
O   -3.9388421180832456   -0.6064187147046547   4.702898689881552
