  40

 N         1.3553         -1.7191         0.3868
 C         2.2011         -0.7265         0.9898
 C         3.1879         -0.2238         -0.0459
 C         4.0155         -1.4116         -0.5208
 C         4.9754         -0.9374         -1.5249
 O         5.7689         -1.7635         -2.0566
 O         5.064         0.3808         -1.9296
 C         1.4109         0.4071         1.4815
 O         1.912         1.4041         2.048
 N         -0.002         0.399         1.319
 C         -0.8384         1.4882         1.7828
 C         -1.5151         2.0851         0.5532
 C         -2.3342         1.0509         -0.1239
 C         -3.6587         0.8477         0.2113
 C         -4.418         -0.1133         -0.4214
 C         -3.8077         -0.8751         -1.4115
 O         -4.5391         -1.8501         -2.0691
 C         -2.5013         -0.7038         -1.7707
 C         -1.759         0.2625         -1.1259
 C         -1.8194         0.9365         2.7283
 O         -1.8366         -0.2754         3.0044
 O         -2.7381         1.7734         3.3217
 H         1.3586         -1.6377         -0.6674
 H         1.6903         -2.669         0.6909
 H         2.764         -1.1756         1.8476
 H         3.8596         0.5534         0.3836
 H         2.632         0.24         -0.8798
 H         3.3109         -2.156         -0.9599
 H         4.5854         -1.8215         0.3344
 H         5.9168         0.8127         -2.261
 H         -0.4599         -0.4129         0.8539
 H         -0.1842         2.2581         2.2694
 H         -0.768         2.4768         -0.1646
 H         -2.165         2.9383         0.8353
 H         -4.1495         1.4427         0.9896
 H         -5.4548         -0.3006         -0.1864
 H         -5.0304         -1.5673         -2.9059
 H         -2.0318         -1.291         -2.5336
 H         -0.726         0.448         -1.363
 H         -3.2714         1.4257         4.113
