  37

 N         1.5355         1.2884         -1.7324
 C         0.8365         0.3819         -0.8436
 C         1.5556         0.4682         0.5052
 C         2.9597         0.0588         0.2947
 C         3.3999         -1.23         0.4057
 C         4.7145         -1.598         0.2063
 C         5.6476         -0.639         -0.1213
 C         5.2121         0.6669         -0.2358
 C         3.8948         1.026         -0.0345
 C         -0.5457         0.8364         -0.6622
 O         -0.9616         1.8887         -1.2497
 N         -1.4578         0.1408         0.1558
 C         -2.8151         0.6054         0.3211
 C         -3.8164         -0.4252         -0.0793
 C         -4.9237         -0.1707         -0.8492
 N         -5.5576         -1.3484         -0.9795
 C         -4.8724         -2.2942         -0.3181
 N         -3.7968         -1.7222         0.2376
 C         -3.0501         1.0198         1.749
 O         -2.1107         0.925         2.5852
 O         -4.2646         1.5026         2.1778
 H         0.9256         1.7639         -2.4082
 H         2.4104         0.9039         -2.1048
 H         0.8345         -0.6589         -1.2211
 H         1.0479         -0.1542         1.2641
 H         1.4738         1.5285         0.8233
 H         2.671         -1.9914         0.6635
 H         4.9824         -2.64         0.3131
 H         6.69         -0.8845         -0.2865
 H         5.9267         1.4569         -0.4952
 H         3.5613         2.0575         -0.127
 H         -1.1025         -0.7334         0.6404
 H         -2.9475         1.5284         -0.2783
 H         -5.2377         0.7946         -1.2771
 H         -5.1281         -3.3435         -0.2359
 H         -3.0699         -2.2391         0.8251
 H         -4.6215         1.2301         3.1014
