36

N   -3.8409370   1.4966637   -0.3518291
C   -3.6859877   0.1988603   0.2969781
C   -4.6602193   -0.8715745   -0.1654132
C   -2.2486742   -0.3019743   0.1565311
O   -1.9468548   -1.4713500   0.3115153
N   -1.3448518   0.6566310   -0.1250078
C   0.0238482   0.3161686   -0.4108185
C   0.8099034   -0.0893051   0.8425863
C   2.2984696   0.0630565   0.7084095
C   2.8651315   1.3259612   0.5536270
C   4.2370190   1.4848024   0.4384310
C   5.0699679   0.3762567   0.4823461
C   4.5187834   -0.8859243   0.6429146
C   3.1448717   -1.0386631   0.7524905
C   0.0448229   -0.6969155   -1.5561832
O   -0.6630984   -0.6127305   -2.5211687
O   0.9682076   -1.6494476   -1.4093177
H   -4.6536740   1.9787413   0.0055014
H   -3.9874854   1.3695670   -1.3463759
H   -3.8218214   0.3613455   1.3722301
H   -5.6869646   -0.5630305   0.0383897
H   -4.4629550   -1.8160584   0.3392577
H   -4.5549180   -1.0405370   -1.2398863
H   -1.7228032   1.5635091   -0.3506076
H   0.4885784   1.2124728   -0.8321360
H   0.4565994   0.5625703   1.6455424
H   0.5441810   -1.1086109   1.1175933
H   2.2242633   2.2020675   0.5343059
H   4.6573938   2.4764453   0.3211147
H   6.1428634   0.4967178   0.3952970
H   5.1613014   -1.7575096   0.6807271
H   2.7163187   -2.0272435   0.8650250
H   0.9089202   -2.2111620   -2.1918696
C   -2.315237942755677   -0.41626040168979717   -4.773242062866548
O   -2.823633553125226   0.5136569097915651   -4.319153198034731
O   -1.8068423323861271   -1.3461777131711594   -5.227330927698365
