  35

 N         -2.0839         2.3462         0.2837
 C         -1.2182         1.3333         0.8219
 C         -1.9122         0.0471         1.1345
 C         -2.5653         -0.6162         -0.029
 C         -3.6245         0.1962         -0.7035
 C         -3.185         -1.9149         0.4457
 C         -0.0851         1.1611         -0.122
 O         -0.0009         1.8234         -1.1888
 N         0.9549         0.2392         0.1397
 C         2.0825         0.0552         -0.782
 C         3.3755         0.3324         -0.0872
 C         4.5841         0.2216         -0.9112
 O         4.549         0.0031         -2.1386
 O         5.8638         0.3569         -0.3585
 C         2.0111         -1.369         -1.1905
 O         1.1089         -2.1121         -0.7253
 O         2.907         -1.912         -2.0706
 H         -1.8665         2.5747         -0.704
 H         -2.1906         3.1812         0.9009
 H         -0.7916         1.7276         1.7684
 H         -2.6674         0.2199         1.9271
 H         -1.1623         -0.6522         1.5567
 H         -1.805         -0.88         -0.7963
 H         -4.4452         -0.4869         -1.0534
 H         -3.2476         0.6738         -1.645
 H         -4.1271         0.9267         -0.0304
 H         -3.3637         -2.6159         -0.4041
 H         -2.5595         -2.39         1.2516
 H         -4.1819         -1.7682         0.9128
 H         0.9073         -0.3182         1.0139
 H         1.9885         0.6964         -1.6631
 H         3.5234         -0.3962         0.7677
 H         3.3368         1.321         0.4259
 H         6.5808         0.8391         -0.8935
 H         3.31         -2.8441         -1.8942
