  40

 N         0.6177         0.5337         2.1362
 C         -0.4275         0.5079         1.0861
 C         -0.6334         1.8909         0.5815
 C         -1.6955         2.16         -0.4158
 C         -3.0975         1.9513         0.0374
 N         -3.4862         0.6443         0.4229
 C         -3.675         -0.4531         -0.4853
 N         -3.6956         -0.1711         -1.7525
 N         -3.8324         -1.7813         -0.0121
 C         0.1221         -0.3023         -0.0338
 O         -0.6573         -0.4749         -1.0351
 N         1.4192         -0.8709         -0.047
 C         2.4366         -0.8383         0.9098
 C         3.4008         -1.9741         0.521
 C         3.3591         -1.8631         -0.9851
 C         1.8812         -1.6169         -1.2291
 C         3.2757         0.4131         0.8141
 O         4.2223         0.5657         1.6146
 O         3.0217         1.3816         -0.1293
 H         0.2117         -0.0481         2.9306
 H         0.6103         1.5079         2.533
 H         -1.3207         0.0942         1.52
 H         -0.8173         2.5305         1.4963
 H         0.3323         2.3101         0.1563
 H         -1.5139         1.5541         -1.3568
 H         -1.5983         3.2293         -0.8094
 H         -3.7979         2.2922         -0.7835
 H         -3.2753         2.6514         0.9177
 H         -3.6685         0.4189         1.4553
 H         -3.8315         -0.9581         -2.4263
 H         -4.0389         -2.5327         -0.6773
 H         -3.7311         -1.9566         1.0203
 H         2.1437         -1.0068         1.9786
 H         4.4045         -1.8119         0.9421
 H         2.9086         -2.8994         0.8694
 H         3.732         -2.7617         -1.4891
 H         3.9124         -0.9346         -1.2702
 H         1.389         -2.5856         -1.3351
 H         1.757         -0.9688         -2.1436
 H         3.6359         2.1732         -0.3043
