  36

 N         -5.0213         -1.4249         -0.5069
 C         -3.904         -0.6568         -0.9783
 C         -4.3852         0.7168         -1.4067
 C         -2.9155         -0.4539         0.1006
 O         -3.1429         -0.9391         1.2301
 N         -1.7093         0.2674         -0.0708
 C         -0.7404         0.4527         1.0298
 C         0.5631         -0.1783         0.63
 C         1.6217         -0.0556         1.6707
 C         2.8728         -0.7617         1.1242
 N         3.317         -0.1341         -0.1015
 C         4.4608         -0.6872         -0.7306
 N         4.8233         -1.9014         -0.4869
 N         5.2053         0.1115         -1.6344
 C         -0.6228         1.8852         1.33
 O         -1.2651         2.7724         0.673
 O         0.1818         2.3768         2.3365
 H         -5.8719         -1.2161         -1.104
 H         -4.8181         -2.4392         -0.4644
 H         -3.4549         -1.1693         -1.8539
 H         -4.7963         1.2672         -0.5395
 H         -3.5016         1.3068         -1.7548
 H         -5.1194         0.5876         -2.2169
 H         -1.5016         0.6749         -0.9908
 H         -1.1839         -0.0779         1.9097
 H         0.3794         -1.2419         0.346
 H         0.9117         0.3181         -0.3077
 H         1.9289         1.0243         1.7626
 H         1.3615         -0.4827         2.6372
 H         3.6749         -0.597         1.8741
 H         2.6491         -1.8373         0.9804
 H         2.8831         0.6783         -0.5611
 H         5.6569         -2.3319         -0.9336
 H         6.207         0.3363         -1.4305
 H         4.7458         0.4683         -2.4963
 H         0.51         3.3417         2.3343
