  33

 N         -1.8736         -0.0005         1.6806
 C         -2.3283         0.3757         0.3209
 C         -3.2984         1.4431         0.303
 C         -4.5069         0.9684         1.0954
 O         -5.4801         1.773         1.3331
 O         -4.6479         -0.3085         1.5826
 C         -1.1936         0.4649         -0.5191
 O         -0.9919         1.4424         -1.3178
 N         -0.2186         -0.609         -0.5172
 C         0.9374         -0.3983         -1.4578
 C         2.0643         -0.4623         -0.3963
 C         3.4261         -0.2368         -0.9171
 S         4.6162         -0.3846         0.4316
 C         4.3767         0.8788         1.6947
 C         1.0231         -1.6364         -2.2168
 O         2.027         -2.4603         -2.1616
 O         0.0381         -2.1238         -3.1139
 H         -2.5778         0.2114         2.4331
 H         -0.9794         0.5779         1.8663
 H         -2.9071         -0.566         0.0051
 H         -3.6217         1.7447         -0.6898
 H         -2.9886         2.3642         0.8557
 H         -5.5032         -0.8285         1.4205
 H         -0.2378         -1.4705         0.0152
 H         0.9003         0.5024         -2.0092
 H         1.7665         0.0702         0.4896
 H         2.0358         -1.5889         -0.0859
 H         3.6645         -0.9216         -1.7331
 H         3.5164         0.8404         -1.2735
 H         4.7675         0.5112         2.6811
 H         5.0335         1.7676         1.4354
 H         3.3179         1.2233         1.8036
 H         -0.156         -3.1636         -3.0384
