34

N   2.5872129   -0.9993235   -1.6057526
C   1.8883225   -0.8341362   -0.3592821
C   2.7256434   -0.1662789   0.7586004
O   3.9175685   -0.9078556   0.9539315
C   3.1388021   1.2502799   0.4419693
C   0.6226928   -0.0300893   -0.5986971
O   0.5167336   0.7584981   -1.5215177
N   -0.3585226   -0.2158833   0.3089288
C   -1.5535112   0.5785101   0.2951250
C   -2.5655397   0.0477948   -0.7594539
O   -3.5702076   0.9911515   -1.0339411
C   -3.2399143   -1.2332277   -0.3325236
C   -2.1229163   0.5720228   1.6908189
O   -1.8018600   -0.2174142   2.5420762
O   -3.0355660   1.5219722   1.8777800
H   2.4083089   -0.1938936   -2.1931552
H   3.5813520   -1.0789800   -1.4383734
H   1.5895387   -1.8202200   0.0276106
H   2.1282146   -0.1711147   1.6814691
H   3.6886921   -1.7910053   1.2500169
H   3.7594220   1.6397645   1.2485106
H   2.2683454   1.8949662   0.3215140
H   3.7174578   1.2819153   -0.4819426
H   -0.2380328   -0.8365227   1.0934123
H   -1.3001502   1.6036469   0.0118422
H   -1.9543674   -0.1367789   -1.6497081
H   -3.1760088   1.7418129   -1.4817482
H   -3.9081272   -1.0547895   0.5123564
H   -2.5028231   -1.9833695   -0.0447441
H   -3.8344270   -1.6280647   -1.1556059
H   -3.3761331   1.4165127   2.7753829
C   0.27324533489612535   2.5706274659141917   -3.642107388258465
O   1.329278144420719   2.2857107811419097   -4.0068349412976705
O   -0.7827874746284679   2.855544150686473   -3.2773798352192594
