44

N   -3.4688150   -2.5228382   -0.0735253
C   -3.7621192   -1.0982586   -0.0672696
C   -4.0880588   -0.6641668   1.3688050
C   -4.9553314   0.5700380   1.5791051
O   -5.6917906   0.6271565   2.5456227
N   -4.8508523   1.5500918   0.6634340
C   -2.5666263   -0.3116424   -0.5974608
O   -2.6717049   0.8589295   -0.9526836
N   -1.4113417   -0.9810896   -0.6176690
C   -0.1735033   -0.3580678   -0.9983816
C   0.4363666   0.4197419   0.1912349
C   1.7094560   1.1258853   -0.1093679
C   3.0366269   0.5912001   -0.0107293
C   3.5561285   -0.6441197   0.3870344
C   4.9228623   -0.8339225   0.3585169
C   5.7881738   0.1872790   -0.0586771
C   5.3048785   1.4186245   -0.4553540
C   3.9273105   1.6062298   -0.4273098
N   3.1693792   2.6970185   -0.7604343
C   1.8440087   2.4065375   -0.5655404
C   0.7681410   -1.4423101   -1.4611460
O   0.7909157   -2.5510257   -0.9947910
O   1.5918763   -1.0253252   -2.4206800
H   -3.5497273   -2.9113661   -1.0036395
H   -4.1097759   -3.0246839   0.5241464
H   -4.6065505   -0.8266374   -0.7125951
H   -3.1654324   -0.5276188   1.9409730
H   -4.6344194   -1.4683927   1.8637685
H   -5.3758635   2.3900273   0.8307893
H   -4.1400979   1.5183617   -0.0629868
H   -1.4140371   -1.9351323   -0.2795842
H   -0.3621955   0.3422370   -1.8119377
H   0.5763176   -0.2876439   1.0131124
H   -0.3306839   1.1309388   0.5022564
H   2.8987746   -1.4436439   0.7089758
H   5.3379100   -1.7858826   0.6657105
H   6.8560983   0.0076680   -0.0682115
H   5.9765525   2.2062336   -0.7756536
H   3.5267380   3.5796280   -1.0723379
H   1.0818595   3.1431558   -0.7669461
H   2.2287523   -1.7333143   -2.5825735
C   -2.9113391730869767   3.528446855127886   -1.7627777339332695
O   -4.0388959826497235   3.499809768871284   -1.5236029892393308
O   -1.7837823635242296   3.5570839413844872   -2.0019524786272083
