34

N   5.2075646   1.2652714   -0.5097232
C   4.3529830   0.1245857   -0.3029570
C   2.8921755   0.4633881   -0.0285139
O   2.4265944   1.5632146   -0.2679477
N   2.1479305   -0.5480902   0.4674423
C   0.7392714   -0.3992043   0.7097966
C   -0.0736640   -0.5221128   -0.5998951
C   -1.5189378   -0.1552082   -0.4675286
C   -2.5190807   -1.1214761   -0.4644524
C   -3.8529313   -0.7826207   -0.3197187
C   -4.2107577   0.5507032   -0.1707938
O   -5.5287808   0.8399578   -0.0303776
C   -3.2257078   1.5316399   -0.1757275
C   -1.8961869   1.1757670   -0.3247718
C   0.3307886   -1.4671064   1.6925851
O   0.9137782   -2.5117300   1.8296097
O   -0.7664851   -1.1431068   2.3740510
H   4.7464927   1.9042513   -1.1467635
H   5.3061860   1.7787418   0.3567061
H   4.7474650   -0.4917981   0.5095193
H   4.3695112   -0.5091320   -1.1973292
H   2.5519409   -1.4483171   0.6705597
H   0.5514498   0.5857967   1.1400426
H   0.4208209   0.1471571   -1.3064273
H   0.0349310   -1.5410335   -0.9792080
H   -2.2499592   -2.1659075   -0.5809818
H   -4.6281568   -1.5381321   -0.3230973
H   -5.6373819   1.7887176   0.0558812
H   -3.5004642   2.5762497   -0.0684048
H   -1.1361809   1.9499173   -0.3346256
H   -0.9951087   -1.9002832   2.9282511
C   1.3563610605178462   4.091390653422203   -0.8183352379797462
O   2.391526459830673   4.4517081010472275   -1.1761241883436502
O   0.3211956612050202   3.731073205797178   -0.46054628761584177
