33

N   -2.0127336   -0.9525580   1.6493891
C   -1.3457032   -0.8570371   0.3747215
C   -1.8995580   0.2062696   -0.6075799
C   -3.3233192   -0.1415864   -1.0165350
C   -1.8151549   1.6186450   -0.0515424
C   0.1229602   -0.5722210   0.6352991
O   0.5179577   -0.0166745   1.6447653
N   0.9715291   -0.9302775   -0.3527641
C   2.3559611   -0.5460601   -0.3055740
C   2.5416026   0.9527235   -0.5414552
O   1.9893529   1.3396942   -1.7823369
C   2.9928363   -1.0779751   0.9754549
O   2.7969916   -2.1722395   1.4163271
O   3.8664366   -0.2124696   1.5079848
H   -1.5386764   -0.3548877   2.3157156
H   -2.9822088   -0.6796092   1.5895651
H   -1.4098558   -1.8252736   -0.1414358
H   -1.2731783   0.1582466   -1.5062151
H   -3.6850163   0.5531201   -1.7768907
H   -3.3899519   -1.1536848   -1.4221079
H   -4.0130281   -0.0735011   -0.1705576
H   -2.3969166   1.7114228   0.8683604
H   -0.7880926   1.9065742   0.1746566
H   -2.2149795   2.3345166   -0.7718135
H   0.6096875   -1.3663658   -1.1795300
H   2.8638265   -1.0871317   -1.1114028
H   3.6004183   1.2113166   -0.4704014
H   2.0091878   1.5022571   0.2332964
H   2.6257690   1.1611048   -2.4751699
H   4.2238560   -0.6364382   2.2980766
C   2.338447744656526   -4.734311472032501   2.4485696794609675
O   1.5623401564859591   -4.929798345343058   1.6185992619475913
O   3.114555332827093   -4.538824598721944   3.2785400969743437
