39

N   2.2167518   -1.3521066   -0.1451501
C   2.0125304   -0.0087517   0.3789499
C   2.7810706   1.0930309   -0.3417157
C   4.2773570   0.9759067   -0.1438478
C   5.0610190   1.9424251   -0.9834124
O   4.6341020   2.5818782   -1.9046725
O   6.3478339   2.0030829   -0.5949783
C   0.5285186   0.3502877   0.4347595
O   0.1443165   1.4694212   0.7199822
N   -0.3138430   -0.6674565   0.1730445
C   -1.7242674   -0.4950375   0.3485576
C   -2.4557375   -1.7624493   -0.0929584
C   -3.9758427   -1.6462761   -0.0936962
C   -4.4418203   -0.6604804   -1.1480314
O   -4.4432028   -0.9469035   -2.3272706
N   -4.8405490   0.5481580   -0.6822289
C   -2.0337139   -0.1837622   1.8063154
O   -1.4552230   -0.6402141   2.7486594
O   -3.0917702   0.6431733   1.9353217
H   2.3305531   -1.3360467   -1.1506904
H   3.0355013   -1.7889812   0.2501892
H   2.3164847   -0.0203708   1.4321729
H   2.4243029   2.0585596   0.0173841
H   2.5467231   1.0577056   -1.4097743
H   4.5581369   1.1222728   0.9025685
H   4.6388347   -0.0241352   -0.4105976
H   6.7869072   2.6224070   -1.1909348
H   0.1028990   -1.5826834   0.0884016
H   -2.0539162   0.3590803   -0.2471100
H   -2.1498614   -2.5858217   0.5584147
H   -2.1239919   -1.9991870   -1.1064614
H   -4.3998793   -2.6133348   -0.3640682
H   -4.3510897   -1.3803964   0.8958252
H   -4.6305439   0.8241831   0.2611916
H   -5.0401383   1.2632933   -1.3601455
H   -3.2184521   0.7794292   2.8829070
C   -0.7395327938906499   4.043965570643397   1.3761313517005882
O   0.35451468079674264   4.396078498710033   1.4682487171561758
O   -1.8335802685780425   3.6918526425767593   1.2840139862450006
