  31

 N         -2.2239         2.3329         -1.0909
 C         -1.9059         1.3639         -0.0442
 C         -3.1692         0.5987         0.343
 O         -2.8719         -0.3052         1.3281
 C         -0.8777         0.4356         -0.5598
 O         -0.5328         0.5196         -1.7681
 N         -0.2537         -0.5623         0.2689
 C         0.7386         -1.4519         -0.2531
 C         2.086         -1.2071         0.3174
 C         2.7128         0.1095         0.1003
 C         2.0397         1.2674         0.702
 O         1.2834         1.1628         1.6889
 N         2.2521         2.5771         0.151
 C         0.3125         -2.8607         0.0526
 O         -0.7541         -3.0925         0.6677
 O         1.1078         -3.9125         -0.3504
 H         -3.2686         2.4291         -1.2011
 H         -1.7898         2.0381         -2.0167
 H         -1.5149         1.8501         0.8668
 H         -3.6361         0.1776         -0.5502
 H         -3.8587         1.3632         0.7903
 H         -3.3199         -1.1792         1.2454
 H         -0.5956         -0.5981         1.2643
 H         0.7839         -1.3285         -1.3736
 H         2.7878         -2.0044         -0.077
 H         2.0797         -1.4318         1.4337
 H         2.8887         0.3338         -0.9895
 H         3.7457         0.09         0.5798
 H         2.5263         3.3306         0.7942
 H         2.135         2.7607         -0.8534
 H         1.0928         -4.8065         0.1155
