24

N   2.4961011   -0.6210129   1.5116167
C   2.6082932   -0.3411639   0.0921936
C   1.2700859   -0.0732903   -0.5738719
O   1.1616213   -0.0364023   -1.7866559
N   0.2538391   0.1319137   0.2850726
C   -1.0621992   0.4328596   -0.1717398
C   -2.0318835   -0.7601187   -0.1269512
S   -1.3905134   -2.2546031   -0.9131724
C   -1.6473635   1.5541939   0.6589749
O   -1.2297369   1.9121905   1.7248648
O   -2.7335816   2.0811675   0.0783160
H   3.3335038   -0.3599503   2.0094272
H   2.3321891   -1.6035471   1.6801465
H   3.0932128   -1.1251070   -0.4982512
H   3.2007355   0.5656241   -0.0516814
H   0.4780382   0.1368928   1.2704452
H   -0.9792695   0.7658382   -1.2095411
H   -2.2287671   -1.0454677   0.9092578
H   -2.9780056   -0.4645206   -0.5788512
H   -0.8698394   -1.6512725   -1.9939094
H   -3.0761604   2.7558763   0.6779104
C   0.9123148915928506   0.04838494665303629   -4.574245797659289
O   2.0356522396432513   -0.188114277469699   -4.681904143663843
O   -0.21102245645755036   0.2848841707757717   -4.466587451654735
