43

N   -0.3014224   -1.4947037   1.3816372
C   -0.2726130   -0.5143719   0.3243876
C   -0.8829436   0.8093036   0.8122519
C   -2.3551126   0.7357188   0.9955299
C   -3.3267861   0.7332543   -0.0592605
C   -3.2390599   0.8300160   -1.4507444
C   -4.4012293   0.7979627   -2.1950531
C   -5.6535381   0.6722834   -1.5779491
C   -5.7712206   0.5765882   -0.2046920
C   -4.5991522   0.6066374   0.5426845
N   -4.3994723   0.5354717   1.8955849
C   -3.0539007   0.6117564   2.1602174
C   1.0723481   -0.2122521   -0.3378136
O   1.1440537   0.4954301   -1.3281281
N   2.1617897   -0.7527782   0.2460289
C   3.4743878   -0.6235870   -0.3201918
C   4.0095862   0.8059644   -0.2373662
C   5.0856003   1.0835866   -1.2470038
O   5.2237234   0.5149879   -2.2937907
O   5.8700242   2.1023471   -0.8608066
C   4.3648694   -1.6110678   0.3989983
O   3.9746094   -2.4077589   1.2117587
O   5.6431957   -1.4973923   0.0415774
H   -0.0087715   -2.4161864   1.0943013
H   0.2072573   -1.2094127   2.2061548
H   -0.9005674   -0.8819964   -0.4927068
H   -0.6350960   1.5782910   0.0777378
H   -0.3926796   1.0919512   1.7500323
H   -2.2749909   0.9303517   -1.9364755
H   -4.3489540   0.8720939   -3.2742657
H   -6.5470197   0.6504806   -2.1897826
H   -6.7418562   0.4814104   0.2677485
H   -5.1204337   0.4513043   2.5857755
H   -2.6898291   0.5623859   3.1742771
H   2.0566750   -1.4229838   0.9904304
H   3.4640569   -0.8958052   -1.3827568
H   3.1789711   1.4700003   -0.4920158
H   4.3506167   1.0647870   0.7649768
H   6.4948338   2.2570654   -1.5802869
H   6.1401503   -2.1588340   0.5387988
C   1.308719178587569   2.120558794982028   -3.60229652052376
O   0.16219323781926143   2.2425024368648736   -3.5981715538941605
O   2.4552451193558764   1.9986151530991823   -3.606421487153359
