46

N   0.7166720   2.0310042   -1.9059385
C   0.8727370   0.7026259   -2.4747748
C   2.3085462   0.1524813   -2.4730623
C   2.9223842   0.1336261   -1.1047166
C   2.7110656   -0.9351579   -0.2368322
C   3.2350916   -0.9319383   1.0449344
C   3.9868022   0.1490003   1.4904818
O   4.5216723   0.2037561   2.7361816
C   4.2157493   1.2211279   0.6389067
C   3.6871428   1.2025395   -0.6412460
C   -0.0779270   -0.3043518   -1.8189351
O   0.0297271   -1.5021094   -2.0148456
N   -1.0307643   0.2585972   -1.0534858
C   -2.0678682   -0.5017072   -0.4107608
C   -1.9949433   -0.3968554   1.1272716
C   -0.6651695   -0.9663462   1.5976017
C   -3.1681671   -1.0997227   1.8229414
C   -4.3775736   -0.2183366   2.0938993
C   -3.4238864   -0.0949052   -0.9445303
O   -4.3089869   -0.8497979   -1.2352791
O   -3.5482793   1.2417029   -1.0405702
H   1.3134595   2.1340186   -1.0928750
H   0.9859981   2.7430597   -2.5691879
H   0.5366145   0.7476810   -3.5160961
H   2.9105516   0.7746895   -3.1400225
H   2.2790104   -0.8542421   -2.8908301
H   2.1184388   -1.7774831   -0.5726444
H   3.0582068   -1.7764329   1.7039078
H   4.3000047   -0.5994996   3.2106099
H   4.8137798   2.0531975   0.9880053
H   3.8894385   2.0374061   -1.3042516
H   -1.0221569   1.2685973   -1.0166583
H   -1.9230181   -1.5433657   -0.7009168
H   -2.0282852   0.6695329   1.3822163
H   -0.5538873   -0.8217123   2.6738380
H   0.1819353   -0.4916736   1.1034553
H   -0.6145306   -2.0389832   1.3930378
H   -3.4677252   -1.9740152   1.2366064
H   -2.8059063   -1.4882100   2.7784486
H   -4.8364792   0.1561400   1.1791263
H   -5.1467610   -0.7738348   2.6332653
H   -4.0989334   0.6436860   2.7049419
H   -4.4338797   1.4164108   -1.3813172
C   0.277118623013675   -4.254583080660601   -2.4650522987636387
O   1.1970474464701044   -4.062630539856693   -3.1331048280253673
O   -0.6428102004427545   -4.446535621464508   -1.7969997695019102
