  36

 N         -2.9479         -0.447         0.6686
 C         -2.4082         -1.2751         -0.3623
 C         -2.8811         -0.7028         -1.6969
 C         -4.3923         -0.7454         -1.6704
 C         -2.3534         0.712         -1.8296
 C         -0.9324         -1.3         -0.2699
 O         -0.2787         -1.9924         -1.1054
 N         -0.1904         -0.5957         0.6985
 C         1.295         -0.6417         0.7645
 C         1.8255         0.7408         0.5744
 C         3.3231         0.7406         0.6181
 C         3.7965         2.135         0.3779
 O         2.9738         3.0375         0.1866
 N         5.1832         2.3801         0.3769
 C         1.5998         -1.1481         2.1053
 O         0.6561         -1.3439         2.9422
 O         2.8967         -1.4234         2.4825
 H         -3.4999         0.3568         0.345
 H         -3.3104         -0.9456         1.4926
 H         -2.7488         -2.3327         -0.3219
 H         -2.5142         -1.3155         -2.5354
 H         -4.7256         -1.5749         -1.0038
 H         -4.7799         0.1915         -1.2447
 H         -4.8109         -0.9478         -2.6869
 H         -3.1264         1.3724         -2.261
 H         -2.0309         1.1218         -0.8502
 H         -1.4312         0.6981         -2.4639
 H         -0.6921         -0.0238         1.3918
 H         1.6502         -1.3027         -0.049
 H         1.4327         1.1637         -0.3824
 H         1.4437         1.4046         1.4084
 H         3.6545         0.4527         1.6523
 H         3.7124         0.0297         -0.1219
 H         5.777         1.8152         -0.2714
 H         5.638         3.0843         0.9799
 H         3.1964         -1.3784         3.461
