  36

 N         -2.5978         -0.4671         -1.4793
 C         -1.618         -0.0176         -0.4783
 C         -2.1534         -0.4318         0.8524
 C         -3.4785         0.1744         1.1433
 C         -3.5275         1.6343         1.1863
 O         -2.5289         2.3593         1.0354
 N         -4.7834         2.2606         1.4134
 C         -0.3155         -0.6815         -0.776
 O         -0.2265         -1.4571         -1.7392
 N         0.8484         -0.4686         -0.0011
 C         2.1232         -1.0844         -0.2486
 C         3.1606         -0.0506         -0.6989
 C         3.3574         1.0117         0.3575
 C         2.7485         0.5889         -1.9899
 C         2.6139         -1.9112         0.8492
 O         1.9441         -2.0451         1.9045
 O         3.82         -2.5902         0.8105
 H         -2.0889         -0.7364         -2.3666
 H         -3.0741         -1.343         -1.1619
 H         -1.5228         1.0672         -0.5982
 H         -2.2805         -1.5382         0.8308
 H         -1.4613         -0.2144         1.6923
 H         -3.8076         -0.1917         2.1594
 H         -4.2772         -0.1807         0.4394
 H         -5.678         1.8488         1.0233
 H         -4.8078         3.129         1.9684
 H         0.7712         0.1855         0.8103
 H         1.9801         -1.7382         -1.1539
 H         4.1469         -0.533         -0.852
 H         3.8734         0.5776         1.2239
 H         2.4119         1.5204         0.6086
 H         4.0314         1.7744         -0.0833
 H         3.6482         1.1386         -2.3807
 H         1.9416         1.3355         -1.857
 H         2.4971         -0.1985         -2.73
 H         4.3096         -2.7269         1.6858
