  40

 N         -2.0151         0.6401         -1.5717
 C         -1.5632         1.8559         -0.9796
 C         -2.2037         2.0864         0.3504
 C         -1.8904         1.0132         1.3255
 C         -2.3409         -0.3626         0.9841
 C         -3.8539         -0.4166         0.8269
 N         -4.2182         -1.7584         0.4911
 C         -0.0785         1.8436         -0.7689
 O         0.5152         2.8678         -0.3255
 N         0.6389         0.681         -1.0698
 C         2.0965         0.6527         -0.8698
 C         2.3242         -0.4118         0.1819
 C         3.7814         -0.5936         0.5305
 C         3.8648         -1.661         1.5708
 O         2.8404         -2.243         2.0109
 O         5.0838         -2.0681         2.1087
 C         2.7155         0.3463         -2.1638
 O         1.9996         0.1613         -3.1745
 O         4.0854         0.2534         -2.3087
 H         -3.0373         0.6947         -1.8383
 H         -1.4424         0.358         -2.4079
 H         -1.7521         2.7261         -1.6785
 H         -3.2987         2.2287         0.1983
 H         -1.847         3.084         0.7329
 H         -2.3458         1.2688         2.3344
 H         -0.7794         0.9541         1.5355
 H         -2.1009         -0.992         1.9038
 H         -1.7959         -0.828         0.1622
 H         -4.2238         0.3701         0.1769
 H         -4.3039         -0.2233         1.8466
 H         -4.1827         -1.9584         -0.5324
 H         -5.0923         -2.0908         0.9441
 H         0.2108         -0.1917         -1.4312
 H         2.4155         1.6335         -0.4829
 H         1.7831         -0.0787         1.0913
 H         1.8778         -1.3731         -0.1223
 H         4.2535         0.3246         0.8762
 H         4.346         -0.9866         -0.3531
 H         5.079         -2.4287         3.0432
 H         4.4544         -0.1553         -3.1474
