  35

 N         0.5378         0.9398         0.6591
 C         0.2545         0.6469         -0.7138
 C         1.0864         -0.4752         -1.2195
 C         2.5537         -0.2954         -1.1862
 C         3.1903         -0.0633         0.1293
 C         4.6968         0.0817         -0.1243
 N         5.3327         0.3086         1.1503
 C         -1.1868         0.2881         -0.8613
 O         -1.6721         -0.0084         -1.9921
 N         -2.0819         0.2585         0.2367
 C         -3.4977         -0.0982         0.0657
 C         -3.8313         -1.237         0.9753
 O         -3.0377         -2.3406         0.6693
 C         -4.2852         1.1058         0.4434
 O         -3.7636         2.172         0.8214
 O         -5.6773         1.0587         0.3777
 H         0.6336         0.1158         1.2619
 H         -0.0666         1.6556         1.0826
 H         0.4198         1.5355         -1.3594
 H         0.7846         -1.408         -0.6648
 H         0.8083         -0.7023         -2.2871
 H         2.83         0.5254         -1.9007
 H         3.0096         -1.2143         -1.6403
 H         3.0001         -0.9119         0.8126
 H         2.8987         0.8641         0.639
 H         5.0873         -0.8256         -0.62
 H         4.9127         0.9425         -0.764
 H         4.6294         0.5202         1.8886
 H         5.8594         -0.5343         1.4519
 H         -1.7373         0.4936         1.1921
 H         -3.6761         -0.3133         -1.0046
 H         -3.65         -0.9137         2.0115
 H         -4.9139         -1.471         0.8562
 H         -3.202         -2.569         -0.2627
 H         -6.246         1.8686         0.175
