33

N   -2.3191325   -0.2206618   0.9382077
C   -1.9860177   -0.9168972   -0.2863814
C   -2.5593999   -0.3423889   -1.5773101
C   -2.0426660   1.0279125   -1.8905203
O   -1.3126809   1.6847015   -1.1865825
O   -2.4943866   1.4812282   -3.0608726
C   -0.4725158   -1.0764354   -0.4453249
O   0.0274997   -1.3097755   -1.5343663
N   0.2282583   -0.9657102   0.6898410
C   1.6588585   -1.0609723   0.6998052
C   2.3296046   0.1984407   0.1253671
C   2.0797157   1.4058044   1.0051184
O   2.7283978   1.5917050   2.0173173
N   1.0956326   2.2363617   0.5998333
C   2.1079713   -1.3365800   2.1177455
O   1.3840335   -1.3213558   3.0743392
O   3.4107815   -1.6171845   2.1710481
H   -3.2834356   -0.3619083   1.1998623
H   -2.1493816   0.7717703   0.8414518
H   -2.3674240   -1.9393125   -0.1949815
H   -3.6504004   -0.2900366   -1.5279836
H   -2.3093210   -0.9845237   -2.4234032
H   -2.1169214   2.3600364   -3.1937432
H   -0.2644753   -0.7769705   1.5516851
H   1.9652147   -1.9038725   0.0741891
H   3.4061799   0.0390962   0.0863407
H   1.9510180   0.3325374   -0.8879028
H   0.4564118   1.9961720   -0.1401313
H   0.8520629   2.9935576   1.2142843
H   3.6467177   -1.6947381   3.1033674
C   4.221448735793847   2.019586492019955   4.347063280125708
O   4.8243825306660035   1.059508278437604   4.136992666270316
O   3.6185149409216897   2.979664705602306   4.5571338939811
