29

N   3.1458666   -1.1060468   -1.0491208
C   2.2888576   -0.6916874   0.0393250
C   2.9264348   0.3083033   1.0074779
C   1.0529736   -0.0364306   -0.5549583
O   1.0986039   0.6240319   -1.5705776
N   -0.0926107   -0.2183227   0.1596738
C   -1.2526094   0.5811549   -0.0982026
C   -2.5331410   -0.2197116   0.0999921
C   -2.6858144   -1.2741107   -0.9639672
O   -2.3451558   -1.1533395   -2.1055071
O   -3.2920460   -2.3734276   -0.4887221
C   -1.2648357   1.8159741   0.7857109
O   -0.5364935   2.0002279   1.7204446
O   -2.2133372   2.6819157   0.4066194
H   3.0508202   -0.4346606   -1.8031413
H   4.1137260   -1.1176139   -0.7593448
H   1.9718824   -1.5758490   0.6065558
H   2.2426103   0.5974051   1.8090470
H   3.2213947   1.2100959   0.4679088
H   3.8164326   -0.1329031   1.4610498
H   0.0030210   -0.6074737   1.0829782
H   -1.1928428   0.9059765   -1.1392967
H   -2.5677514   -0.6786036   1.0894391
H   -3.3988842   0.4425988   0.0198672
H   -3.3868828   -2.9821066   -1.2324663
H   -2.1705189   3.4347033   1.0093149
C   -1.5485543714348262   -0.8709262262721964   -4.774901957796476
O   -1.1409831778223105   0.18215824198038555   -4.541861564597259
O   -1.9561255650473421   -1.9240106945247786   -5.007942350995693
