36

N   -1.1362547   2.0465602   -1.3075432
C   -1.0793913   0.8849699   -0.4354327
C   -2.4858870   0.4077442   -0.0601417
C   -2.4292525   -0.8530672   0.7903719
C   -3.2568350   1.5086946   0.6487128
C   -0.3253288   -0.2463985   -1.1299892
O   -0.7199054   -0.6717790   -2.2030850
N   0.7926465   -0.7488375   -0.5516606
C   1.4012795   -0.3101081   0.6792648
C   2.5110961   -1.3463277   0.9098743
C   2.9176899   -1.7275093   -0.5077971
C   1.5927842   -1.7462627   -1.2534017
C   1.9802403   1.0903462   0.5721292
O   2.1006572   1.7290792   -0.4356299
O   2.3584768   1.5412900   1.7774387
H   -1.4558276   1.7369323   -2.2192329
H   -0.2002263   2.4103489   -1.4418080
H   -0.5794255   1.1920911   0.4871072
H   -2.9897450   0.1644782   -1.0020156
H   -3.4351176   -1.1870342   1.0507107
H   -1.9317628   -1.6753986   0.2726077
H   -1.8973677   -0.6655811   1.7290388
H   -4.2875079   1.1996216   0.8347083
H   -3.2641181   2.4232072   0.0576957
H   -2.7996601   1.7362752   1.6170302
H   0.6985847   -0.3092306   1.5147745
H   2.0808661   -2.2051197   1.4285520
H   3.3229636   -0.9550206   1.5207608
H   3.4399351   -2.6821385   -0.5557976
H   3.5725988   -0.9622243   -0.9298277
H   1.1056562   -2.7248320   -1.1990354
H   1.6734731   -1.4799713   -2.3063889
H   2.7246652   2.4250020   1.6482097
C   2.381819573212951   3.220461938879904   -2.788654601540622
O   1.917402850492605   2.355063161949293   -3.392650515884996
O   2.846236295933297   4.085860715810514   -2.1846586871962472
