27

N   -0.9630245   0.4859608   -1.7783369
C   -0.8196295   1.0660620   -0.4547465
C   -1.9290658   0.5673032   0.4148301
C   -2.0502778   0.2808345   1.7478331
N   -3.3236374   -0.1329136   2.0337975
C   -3.9679062   -0.0973999   0.8966644
N   -3.1691499   0.3228139   -0.1137606
C   0.5110635   0.8760542   0.2817310
O   0.7806836   1.5253791   1.2728473
N   1.3478231   -0.0446328   -0.2338716
C   2.6148616   -0.3165864   0.3686652
C   3.3787510   -1.2694969   -0.5032162
O   2.9695948   -1.7245184   -1.5383737
O   4.5751080   -1.5591999   0.0107087
H   -0.2875669   0.8474439   -2.4360677
H   -0.9152211   -0.5241985   -1.7634701
H   -0.9127849   2.1532253   -0.5664142
H   -1.2929916   0.3738121   2.5084238
H   -5.0014268   -0.3677209   0.7448166
H   -3.3932373   0.4146635   -1.0892981
H   1.1322759   -0.5438943   -1.0804924
H   2.5099674   -0.7552369   1.3664045
H   3.1991992   0.5983228   0.5050904
H   5.0065915   -2.1758768   -0.5937646
C   2.0168812129783245   -2.7840285954632082   -3.9487211784382854
O   1.035604168420126   -2.1922623421041196   -3.8209829178877603
O   2.998158257536523   -3.375794848822297   -4.0764594389888105
