  45

 N         1.9711         -3.5422         1.4236
 C         1.8937         -2.0718         1.2518
 C         3.1573         -1.7252         0.505
 C         3.217         -0.2623         0.2526
 C         4.5139         0.124         -0.4867
 C         4.4404         1.6242         -0.6748
 N         5.6044         2.1394         -1.3638
 C         0.6513         -1.7706         0.5408
 O         0.0237         -2.7252         -0.0428
 N         0.0904         -0.4676         0.4606
 C         -1.1716         -0.3095         -0.2916
 C         -2.2748         0.0911         0.6576
 C         -3.5701         0.2576         -0.056
 C         -4.6032         0.6327         1.002
 C         -5.9371         0.8094         0.3033
 N         -5.8664         1.854         -0.697
 C         -0.9724         0.6164         -1.421
 O         0.1692         1.1731         -1.5746
 O         -1.9148         0.96         -2.366
 H         1.0731         -3.9944         1.1887
 H         2.3709         -3.7934         2.3391
 H         1.8721         -1.5888         2.2497
 H         4.0332         -1.9935         1.1345
 H         3.2174         -2.2937         -0.4479
 H         3.1751         0.3767         1.146
 H         2.4035         0.0694         -0.4543
 H         5.3761         -0.1868         0.1214
 H         4.5436         -0.4063         -1.4714
 H         4.3166         2.0692         0.3344
 H         3.5219         1.8401         -1.2579
 H         6.43         1.9695         -0.715
 H         5.4911         3.176         -1.4107
 H         0.5335         0.3528         0.9169
 H         -1.4891         -1.2818         -0.7187
 H         -2.4363         -0.7322         1.4144
 H         -1.9897         0.9694         1.2741
 H         -3.4992         1.1022         -0.7707
 H         -3.8472         -0.674         -0.5607
 H         -4.3538         1.5976         1.4711
 H         -4.698         -0.1321         1.7786
 H         -6.142         -0.1413         -0.2494
 H         -6.7441         1.0361         1.0171
 H         -5.3942         2.7076         -0.3746
 H         -5.5655         1.512         -1.6309
 H         -1.6212         1.0323         -3.3395
