31

N   -2.3352519   1.5695863   -0.3939788
C   -1.3851846   0.7833650   0.3763595
C   -2.1401795   -0.4784198   0.8771288
C   -3.3596174   -0.5451266   -0.0334833
C   -3.6433967   0.9326084   -0.2743461
C   -0.1990355   0.3998619   -0.4946252
O   -0.2482867   0.4118371   -1.7118018
N   0.9035712   0.0167341   0.1835959
C   2.0825694   -0.4679801   -0.4803257
C   2.9578034   0.7096798   -0.9151197
O   4.0941007   0.2144478   -1.5775265
C   2.8254256   -1.3531891   0.4940585
O   2.7876951   -1.1988824   1.6876242
O   3.5283021   -2.3093791   -0.1043267
H   -2.0271732   1.5296665   -1.3598140
H   -1.0051816   1.3511470   1.2337279
H   -1.5205912   -1.3754955   0.8458942
H   -2.4488197   -0.3285170   1.9138296
H   -4.1936722   -1.0867067   0.4154822
H   -3.1024864   -1.0316325   -0.9775638
H   -4.2396833   1.1267204   -1.1665427
H   -4.1851891   1.3554143   0.5794105
H   0.9236013   0.0280319   1.1907199
H   1.8019736   -1.0366294   -1.3674871
H   3.2251575   1.2894613   -0.0220453
H   2.3380954   1.3333774   -1.5667212
H   4.5586932   0.9465221   -1.9827581
H   4.0065606   -2.7866032   0.5859348
C   -0.36148633504701894   0.43936106428137917   -4.5093772277615916
O   -1.448710641006251   0.8202457980281095   -4.461637012741665
O   0.7257379709122129   0.058476330534648735   -4.557117442781518
