36

N   -0.7044120   2.1424564   -1.2055120
C   -0.4012787   2.1187757   0.2044922
C   -1.6115749   1.7459322   1.0475560
C   -2.1091864   0.3774159   0.7495200
C   -3.0654278   0.1914991   -0.2410448
C   -3.5469261   -1.0666521   -0.5600604
C   -3.0864180   -2.1825471   0.1044207
C   -2.1379673   -2.0174267   1.0922507
C   -1.6548280   -0.7498741   1.4116613
C   0.7528389   1.2468568   0.5699346
O   1.1032359   1.1849009   1.7604530
N   1.4397826   0.5082192   -0.3833937
C   2.5466403   -0.3444487   -0.0877517
C   2.2584545   -1.8104092   -0.3694942
C   3.7819645   0.0660663   -0.7809200
O   3.7943511   1.0455972   -1.5315235
O   4.9276018   -0.6507026   -0.5910286
H   -0.0712452   2.7540828   -1.7317921
H   -0.8321166   1.2209761   -1.6238905
H   -0.1529962   3.1639978   0.4880154
H   -1.2877663   1.8343254   2.1095521
H   -2.3978062   2.5137582   0.9163216
H   -3.4329880   1.0565445   -0.7646729
H   -4.2948143   -1.1535562   -1.3438180
H   -3.4792593   -3.1601446   -0.1631066
H   -1.7723548   -2.8923427   1.6202450
H   -0.9175482   -0.6339031   2.1837564
H   1.1297739   0.5931918   -1.3659129
H   2.7256166   -0.2594803   1.0141119
H   1.6470068   -1.9511020   -1.2747792
H   1.8169681   -2.3022632   0.5115535
H   3.2238902   -2.3157748   -0.5606552
H   5.8085889   -0.2738692   -0.8769880
C   3.822454218494486   3.2679885706513345   -3.2345169851271054
O   2.7032836678728103   3.445400536887016   -3.0214647078391947
O   4.941624769116162   3.0905766044156526   -3.447569262415016
