33

N   2.7638125   -0.2551324   1.0592448
C   1.5790445   0.0845320   0.3053646
C   1.9954763   0.6942145   -1.0345849
C   2.8319131   1.9315858   -0.8675707
O   3.8731625   2.1460964   -1.4210029
O   2.2498494   2.8189274   -0.0416945
C   0.7088157   -1.1357679   -0.0024927
O   1.2257606   -2.2243497   -0.1795248
N   -0.6248910   -0.9489567   -0.1354938
C   -1.3528863   0.2800986   0.1033222
C   -2.8071320   -0.0767803   -0.2723352
C   -2.6583685   -1.2734689   -1.2022255
C   -1.4878992   -2.0261295   -0.5961031
C   -1.3306918   0.7968525   1.5252644
O   -1.5473146   1.9407928   1.8128088
O   -1.1039077   -0.1626820   2.4334351
H   2.5176515   -0.4594920   2.0188305
H   3.1482342   -1.1129159   0.6768328
H   1.0278506   0.8400224   0.8654719
H   2.5767581   -0.0275520   -1.6074019
H   1.1138831   0.9612378   -1.6258092
H   2.8448855   3.5759494   0.0149969
H   -0.9884669   1.0994183   -0.5213595
H   -3.3229464   0.7743552   -0.7116901
H   -3.3545701   -0.3724099   0.6256923
H   -3.5654048   -1.8741518   -1.2597014
H   -2.4044116   -0.9429751   -2.2119879
H   -1.8028698   -2.6538544   0.2442961
H   -0.9408230   -2.6557150   -1.2950547
H   -1.1645138   0.2580503   3.3002725
C   6.305700487283221   2.647230117988136   -2.713915865794482
O   6.254109346902727   1.6092674546526886   -3.2132963457452153
O   6.357291627663715   3.6851927813235834   -2.2145353858437486
