  37

 N         3.6952         -0.2003         -0.73
 C         3.2961         0.6643         0.353
 C         3.5904         2.0806         -0.0535
 O         4.9599         2.1853         -0.2953
 C         3.1693         3.0917         0.9629
 C         1.8798         0.4435         0.696
 O         1.3532         1.1119         1.6234
 N         1.058         -0.4979         0.0281
 C         -0.3532         -0.7         0.3892
 C         -1.1394         -0.3961         -0.8439
 C         -2.5813         -0.5559         -0.6516
 C         -3.178         -1.7609         -0.9371
 C         -4.5391         -1.8699         -0.7344
 C         -5.284         -0.8109         -0.2619
 C         -4.6615         0.3897         0.0174
 C         -3.3226         0.5016         -0.1803
 C         -0.4946         -2.1079         0.8043
 O         0.4983         -2.8713         0.7726
 O         -1.6836         -2.6741         1.2441
 H         3.8624         -1.181         -0.434
 H         3.1008         -0.1104         -1.5734
 H         3.8996         0.3869         1.2416
 H         3.0742         2.3073         -1.0117
 H         5.4409         1.3626         -0.0217
 H         3.419         2.7506         1.9718
 H         3.7482         4.023         0.7711
 H         2.0848         3.2864         0.867
 H         1.449         -1.0604         -0.7312
 H         -0.6299         -0.0221         1.2279
 H         -0.9148         0.6367         -1.1928
 H         -0.7863         -1.0968         -1.6552
 H         -2.5999         -2.6059         -1.3171
 H         -5.02         -2.8218         -0.9582
 H         -6.3478         -0.9053         -0.1064
 H         -5.2669         1.2201         0.3917
 H         -2.8183         1.4295         0.0316
 H         -1.958         -3.6229         1.0255
