40

N   1.5960488   1.6910051   -2.0135016
C   2.1479922   1.3523025   -0.7092794
C   1.5058865   2.2040664   0.3742411
C   1.9232467   -0.1183287   -0.3652494
O   2.4973100   -0.6396554   0.5743776
N   1.0458938   -0.7500606   -1.1677727
C   0.6581792   -2.1053829   -0.9522024
C   -0.7667704   -2.2384720   -0.3605910
C   -0.9560640   -1.3654191   0.8285807
C   -1.4892924   -0.0353025   0.8299712
C   -2.0278853   0.7937855   -0.1574825
C   -2.4478051   2.0622192   0.1882507
C   -2.3406189   2.5264832   1.5070450
C   -1.8146697   1.7302657   2.5057473
C   -1.3938363   0.4526368   2.1538412
N   -0.8337160   -0.5418362   2.9088023
C   -0.5691480   -1.6246666   2.1122169
C   0.7320981   -2.8822299   -2.2440543
O   0.7775212   -2.4027011   -3.3435313
O   0.6875287   -4.2058424   -2.0259159
H   1.3442143   2.6677450   -2.0567421
H   2.2531789   1.5063553   -2.7584704
H   3.2349864   1.4887769   -0.6585849
H   1.8496025   1.8787397   1.3547321
H   0.4186809   2.1155615   0.3380198
H   1.7761748   3.2542329   0.2413304
H   0.6543626   -0.2014645   -1.9206145
H   1.3684802   -2.5269493   -0.2378083
H   -0.9369652   -3.2881595   -0.1155718
H   -1.4951254   -1.9708654   -1.1317781
H   -2.1066922   0.4526424   -1.1829844
H   -2.8642604   2.7142216   -0.5696149
H   -2.6753078   3.5281354   1.7467450
H   -1.7311291   2.0925802   3.5235034
H   -0.6155531   -0.4784990   3.8846207
H   -0.0973923   -2.5039268   2.5214378
H   0.6909459   -4.6317936   -2.8920132
C   3.816682244136246   -1.8378228810202004   2.7339265271671054
O   4.355019605400804   -0.8429213225687024   2.9570246545852745
O   3.278344882871688   -2.832724439471698   2.510828399748936
