37

N   0.8803   -1.2684   -0.1965
C   0.9360   0.1367   0.0371
C   1.8363   0.8116   -0.9583
C   3.1603   0.1443   -0.6556
C   3.8739   0.6723   0.4219
C   5.0440   0.1132   0.8245
C   5.4856   -0.9946   0.0883
C   4.8094   -1.5301   -0.9804
C   3.5746   -0.9349   -1.3710
C   -0.3888   0.8073   0.2244
O   -0.4289   2.0479   0.3572
N   -1.5418   -0.0009   0.2348
C   -2.8642   0.4240   0.3534
C   -3.5913   0.6115   -0.9361
O   -3.7856   -0.4521   -1.7458
C   -4.8421   1.4197   -0.6500
C   -3.6135   -0.4144   1.3617
O   -4.4561   0.0918   2.1408
O   -3.3186   -1.7706   1.4190
H   1.0051   -1.6518   -1.1201
H   0.6122   -1.8602   0.5964
H   1.4682   0.2370   1.0365
H   1.8645   1.8864   -0.7939
H   1.5659   0.5654   -1.9737
H   3.4569   1.5408   0.9632
H   5.6133   0.4938   1.6355
H   6.4274   -1.4502   0.3883
H   5.1374   -2.4060   -1.5263
H   3.0180   -1.3023   -2.1957
H   -1.3270   -1.0432   0.1259
H   -2.9140   1.4738   0.8120
H   -2.9106   1.3812   -1.4832
H   -4.5030   -0.2706   -2.3742
H   -5.7637   0.8711   -0.7402
H   -4.7989   1.8095   0.4117
H   -4.8700   2.3443   -1.2641
H   -3.8514   -2.5336   1.6771
