36

N   2.6604   -1.4005   -1.1622
C   2.7749   -0.3718   -0.1393
C   3.3751   0.8618   -0.7427
O   4.6368   0.5142   -1.2342
C   3.5972   1.9185   0.3185
C   1.4687   -0.1187   0.5215
O   1.3628   0.7339   1.4412
N   0.2791   -0.8092   0.1649
C   -1.0116   -0.5545   0.8232
C   -2.0316   -0.1174   -0.1942
C   -1.5858   1.1523   -0.8941
C   -3.3995   -0.0012   0.3813
C   -4.4161   0.4632   -0.6559
C   -1.4144   -1.8124   1.4720
O   -0.6711   -2.8368   1.2974
O   -2.5397   -1.9888   2.2681
H   3.5849   -1.7377   -1.4838
H   2.2298   -2.2354   -0.6600
H   3.4775   -0.7499   0.6310
H   2.7771   1.2744   -1.5786
H   5.2392   0.4854   -0.4256
H   2.7038   2.5501   0.4754
H   4.4382   2.5895   -0.0143
H   3.9467   1.4308   1.2495
H   0.3221   -1.5223   -0.5910
H   -0.9030   0.2249   1.6035
H   -2.1155   -0.8781   -1.0281
H   -1.7127   2.0442   -0.2765
H   -2.1589   1.3196   -1.8293
H   -0.5237   1.0785   -1.1867
H   -3.7890   -1.0130   0.7025
H   -3.5042   0.6567   1.2552
H   -5.4176   0.2176   -0.2468
H   -4.3902   1.5854   -0.7387
H   -4.3134   -0.0426   -1.6171
H   -2.9763   -2.9109   2.2309
