34

N   -2.7611   0.1515   1.3478
C   -2.6734   -0.3976   0.0309
C   -3.4621   0.3912   -1.0178
C   -4.8779   0.4025   -0.6716
O   -5.4061   -0.7328   -0.4064
N   -5.6114   1.5975   -0.6384
C   -1.2785   -0.5688   -0.3647
O   -1.0121   -0.9651   -1.5330
N   -0.2334   -0.2850   0.5806
C   1.1251   -0.4662   0.1466
C   1.9738   0.7561   0.4219
C   3.3687   0.5817   -0.0379
C   4.4584   0.1214   0.6195
N   5.5427   0.1151   -0.2033
C   5.0994   0.5843   -1.3872
N   3.7813   0.8713   -1.3029
C   1.6308   -1.6860   0.8629
O   0.9379   -2.3463   1.6823
O   2.9143   -2.1564   0.6517
H   -3.5532   -0.1502   1.9223
H   -2.5015   1.1627   1.4117
H   -3.1394   -1.4226   0.0713
H   -3.0475   1.4133   -1.1049
H   -3.2632   -0.0985   -2.0213
H   -6.2869   1.7246   0.1674
H   -5.5337   2.3458   -1.3496
H   -0.5084   0.0308   1.5198
H   1.1122   -0.7040   -0.9423
H   1.9248   0.9547   1.5287
H   1.4784   1.6274   -0.0673
H   4.4793   -0.1935   1.6473
H   6.4881   -0.2060   0.0966
H   5.7293   0.7079   -2.2659
H   3.1055   -3.1609   0.6053
