34

N   -3.4866   -1.3613   -0.0463
C   -2.4379   -0.5982   -0.6981
C   -3.1312   0.6370   -1.2075
C   -4.2193   0.8731   -0.2024
C   -4.4399   -0.4530   0.4880
C   -1.3244   -0.3386   0.2179
O   -1.3561   -0.5198   1.4759
N   -0.0735   0.1693   -0.3083
C   0.9820   0.4784   0.6138
C   2.1342   -0.4340   0.7284
C   3.1074   -0.5778   -0.3967
C   4.2416   -1.4374   0.1296
O   4.2010   -2.6585   0.1598
N   5.3628   -0.7004   0.5906
C   1.5150   1.8420   0.1212
O   1.3561   2.8998   0.7235
O   2.1929   1.7969   -1.0761
H   -3.0446   -1.9993   0.6704
H   -2.0329   -1.1532   -1.5931
H   -2.4423   1.4794   -1.2209
H   -3.5383   0.4688   -2.2275
H   -3.8414   1.5939   0.5450
H   -5.1686   1.2715   -0.6256
H   -5.4730   -0.8471   0.3624
H   -4.2552   -0.3849   1.5942
H   0.0280   0.3059   -1.3392
H   0.5359   0.6503   1.6165
H   2.6163   -0.5060   1.7077
H   1.6013   -1.5129   0.6851
H   3.5758   0.3852   -0.7166
H   2.7072   -1.0881   -1.2668
H   5.8965   -1.0143   1.4033
H   5.6456   0.1946   0.0685
H   2.5657   2.5388   -1.5764
