31

N   -3.6065   0.7011   -1.5433
C   -2.8003   0.8048   -0.3693
C   -3.5634   0.6104   0.9190
O   -4.5428   1.6042   0.9601
C   -1.5915   -0.0297   -0.4584
O   -1.4189   -0.6949   -1.5130
N   -0.6308   -0.1112   0.5804
C   0.5376   -0.9650   0.4011
C   1.7697   -0.0917   0.3414
C   3.0518   -0.8264   0.1568
S   4.4570   0.3569   0.0929
C   4.3168   1.3763   -1.3929
C   0.5986   -2.0176   1.4210
O   -0.2965   -2.0576   2.3005
O   1.5902   -2.9733   1.4684
H   -4.1907   -0.1559   -1.6040
H   -4.1499   1.5805   -1.7439
H   -2.4341   1.8747   -0.3358
H   -2.8514   0.7794   1.7523
H   -4.0739   -0.3500   1.0060
H   -4.1128   2.4476   0.6188
H   -0.7894   0.4482   1.4520
H   0.4468   -1.4303   -0.6010
H   1.8649   0.5251   1.2780
H   1.6906   0.6524   -0.4772
H   3.3149   -1.5459   0.9377
H   3.0956   -1.3665   -0.8293
H   5.2996   1.4197   -1.9185
H   4.0255   2.4231   -1.1239
H   3.5675   0.9079   -2.0675
H   1.4259   -3.8963   1.8737
