36

N   -2.2918   0.0947   -2.1343
C   -1.3059   0.5002   -1.0649
C   -2.2176   1.0673   -0.0127
C   -3.2028   0.0280   0.4994
C   -1.6083   1.8792   1.0611
C   -0.6033   1.2022   1.9367
C   -0.6480   -0.7707   -0.7177
O   -1.4282   -1.7988   -0.7129
N   0.7219   -0.9524   -0.4071
C   1.8125   -0.0240   -0.3325
C   2.4878   -0.4033   0.9437
C   2.2990   -1.9059   0.9835
C   1.3161   -2.2323   -0.1115
C   2.6835   -0.0260   -1.5010
O   2.4617   -0.7854   -2.4588
O   3.7647   0.8192   -1.5512
H   -1.6896   -0.1518   -2.9547
H   -2.7531   1.0025   -2.3870
H   -0.6696   1.2839   -1.4554
H   -2.9076   1.7974   -0.5795
H   -2.7497   -0.7030   1.1666
H   -4.0091   0.6126   1.0303
H   -3.7031   -0.4334   -0.3670
H   -2.3929   2.3561   1.7244
H   -1.0965   2.7592   0.5844
H   0.3779   1.7307   1.8682
H   -0.4982   0.1242   1.7858
H   -0.9537   1.3115   3.0074
H   1.3856   1.0033   -0.1590
H   2.0615   0.0901   1.8144
H   3.5894   -0.1750   0.8319
H   1.8695   -2.1503   1.9819
H   3.2596   -2.4451   0.8180
H   1.8027   -2.6920   -0.9936
H   0.5471   -2.9471   0.2691
H   4.2886   0.9343   -2.4060
