28

N   -2.5936   -1.1223   -0.3515
C   -1.5303   -0.1945   -0.6078
C   -1.9024   1.1123   0.0716
C   -3.4292   0.9658   0.1324
C   -3.5479   -0.4951   0.5137
C   -0.2655   -0.7539   -0.1232
O   -0.2257   -1.8868   0.4216
N   0.9678   -0.0361   -0.2504
C   2.2325   -0.5918   0.2325
C   3.1315   -0.7976   -0.9890
S   3.4193   0.7904   -1.8281
C   2.9254   0.3480   1.1251
O   2.4124   1.4604   1.3769
O   4.1336   0.0190   1.6883
H   -2.2556   -2.0185   0.0713
H   -1.5148   0.0294   -1.7054
H   -1.4855   1.1800   1.0934
H   -1.7040   1.9922   -0.5561
H   -3.8737   1.6345   0.8822
H   -3.8166   1.1522   -0.8997
H   -3.1986   -0.5823   1.5577
H   -4.5762   -0.8793   0.3704
H   0.9090   0.8961   -0.7031
H   2.0698   -1.5753   0.6712
H   4.0890   -1.2511   -0.7114
H   2.6056   -1.5019   -1.6670
H   2.2228   1.3979   -2.1846
H   4.8010   0.7081   2.0430
