41

N   1.6282   -1.0575   0.4082
C   1.4623   0.3617   0.5652
C   2.0384   1.0706   -0.6506
C   3.4763   0.7375   -0.7551
C   3.9199   -0.3508   -1.4704
C   5.2731   -0.6049   -1.5275
C   6.1697   0.2101   -0.8837
O   7.5424   -0.0367   -0.9340
C   5.7398   1.3043   -0.1631
C   4.3737   1.5579   -0.1075
C   0.0249   0.6763   0.7273
O   -0.3432   1.8748   0.8819
N   -0.9110   -0.3921   0.7041
C   -2.3340   -0.0598   0.8667
C   -3.0365   -0.5193   -0.3811
C   -4.4749   -0.1952   -0.3233
C   -5.4319   -0.5336   -1.2977
N   -6.6222   -0.0574   -0.9111
C   -6.4769   0.5739   0.2703
N   -5.1812   0.4753   0.5974
C   -2.7997   -0.7504   2.0987
O   -1.9593   -1.4654   2.7423
O   -4.0712   -0.6904   2.6200
H   1.2664   -1.5591   1.2466
H   1.1150   -1.3944   -0.4362
H   2.0370   0.6617   1.4702
H   1.5140   0.6886   -1.5601
H   1.9105   2.1673   -0.5786
H   3.2249   -1.0053   -1.9853
H   5.6756   -1.4448   -2.0742
H   7.8901   -0.8403   -1.4605
H   6.4495   1.9383   0.3389
H   4.0516   2.4149   0.4582
H   -0.6535   -1.3860   0.5803
H   -2.4817   1.0181   0.9893
H   -2.5420   -0.0582   -1.2643
H   -2.9274   -1.6283   -0.4358
H   -5.1915   -1.0870   -2.1907
H   -7.5328   -0.1408   -1.4131
H   -7.2883   1.0528   0.8087
H   -4.5243   -1.5266   2.9675
