30

N   -1.9562   -1.4093   1.6546
C   -1.2633   -1.0549   0.4298
C   -2.1543   -0.2418   -0.4539
C   -2.6189   1.0402   0.1639
C   -3.4334   -1.0787   -0.6339
C   0.0418   -0.4963   0.7214
O   0.4210   -0.3806   1.9168
N   0.9452   -0.0584   -0.2977
C   2.2440   0.4977   -0.0096
C   3.3620   -0.3181   -0.6265
S   4.9760   0.4138   -0.2412
C   2.2958   1.8856   -0.5169
O   1.3067   2.3716   -1.0816
O   3.4248   2.6922   -0.3892
H   -1.2510   -1.9046   2.2545
H   -2.6730   -2.1306   1.3858
H   -1.0989   -2.0364   -0.1082
H   -1.7289   -0.1129   -1.4481
H   -3.3889   1.4813   -0.4980
H   -1.8251   1.7857   0.3188
H   -3.1104   0.8423   1.1308
H   -3.9996   -0.9538   0.3357
H   -3.1778   -2.1577   -0.6811
H   -4.0349   -0.7276   -1.4727
H   0.5743   -0.1800   -1.2658
H   2.4567   0.5450   1.0759
H   3.2399   -0.2345   -1.7436
H   3.3559   -1.3580   -0.3038
H   5.7069   -0.4078   0.6205
H   3.3636   3.6864   -0.2368
