34

N   -2.6017   0.4424   -2.5371
C   -2.1149   0.8853   -1.2755
C   -3.0752   0.5863   -0.1421
C   -4.3722   1.2522   -0.3664
O   -4.5251   1.9422   -1.3981
N   -5.4447   1.1283   0.5567
C   -0.8503   0.1577   -0.9596
O   -0.4311   -0.6797   -1.7922
N   -0.1189   0.3692   0.2177
C   1.1148   -0.4031   0.4283
C   2.2440   0.6035   0.5603
C   3.5740   -0.0152   0.7784
C   3.9715   -0.8886   -0.3364
O   3.3126   -0.9823   -1.3989
N   5.1567   -1.6759   -0.2342
C   0.9232   -1.1881   1.6690
O   -0.1383   -1.0732   2.3109
O   1.8920   -2.0496   2.1374
H   -3.1238   1.1319   -3.0877
H   -1.8404   -0.0358   -3.0724
H   -1.8774   1.9728   -1.2500
H   -2.6775   0.9184   0.8304
H   -3.1742   -0.5149   -0.0836
H   -5.4304   1.5185   1.5169
H   -6.2948   0.6099   0.2370
H   -0.4451   1.0607   0.9280
H   1.2472   -1.0633   -0.4544
H   1.9563   1.3243   1.3574
H   2.2227   1.2004   -0.3904
H   4.3541   0.8030   0.8955
H   3.5936   -0.5626   1.7580
H   5.1039   -2.7161   -0.3125
H   6.0704   -1.2296   -0.0832
H   1.7991   -2.5941   2.9929
