31

N   0.4979   -1.9700   -1.7206
C   1.0866   -1.2120   -0.6321
C   2.0470   -0.1854   -1.2336
C   2.6939   0.6343   -0.1802
C   3.8770   0.3878   0.4946
N   4.0434   1.4234   1.3552
C   3.0159   2.2812   1.2296
N   2.1930   1.7861   0.2834
C   0.0198   -0.5548   0.1650
O   0.2673   0.1578   1.1701
N   -1.3678   -0.6995   -0.1732
C   -2.4159   -0.0754   0.5802
C   -3.2101   0.9046   -0.2577
O   -2.3320   1.8875   -0.7160
C   -3.3620   -1.0620   1.1456
O   -3.1671   -2.2753   0.9243
O   -4.4352   -0.6607   1.8996
H   1.2716   -2.4928   -2.1970
H   -0.1379   -2.6897   -1.3036
H   1.6275   -1.8902   0.0288
H   2.7726   -0.7323   -1.8604
H   1.4830   0.4812   -1.9276
H   4.5232   -0.4475   0.3619
H   4.8586   1.5375   2.0233
H   2.8717   3.2128   1.7924
H   -1.5919   -1.2837   -0.9993
H   -1.9830   0.5035   1.4188
H   -4.0019   1.3381   0.3790
H   -3.7178   0.3911   -1.1014
H   -2.2961   2.6202   -0.0496
H   -5.1311   -1.3157   2.2356
