25

N   2.1558   -1.4791   -0.6567
C   2.1185   -0.3631   0.2423
C   3.0509   0.7318   -0.1812
S   4.7661   0.1750   -0.2482
C   0.7651   0.1635   0.4648
O   0.6364   1.1450   1.2410
N   -0.3962   -0.3645   -0.1383
C   -1.6802   0.2279   0.1482
C   -2.3350   0.7595   -1.1283
O   -3.5491   1.3068   -0.7777
C   -2.5791   -0.8257   0.6641
O   -2.1385   -1.9928   0.7727
O   -3.9006   -0.5649   1.0342
H   1.4226   -2.1687   -0.4449
H   2.0773   -1.1156   -1.6307
H   2.4892   -0.7317   1.2413
H   2.9604   1.5866   0.5191
H   2.7115   1.1111   -1.1721
H   5.5032   0.7386   0.8283
H   -0.3259   -1.1736   -0.7836
H   -1.5876   1.0838   0.8560
H   -1.6487   1.4833   -1.5834
H   -2.5362   -0.1153   -1.7881
H   -3.5203   1.6905   0.1247
H   -4.4597   -1.3082   1.3972
