46

N   3.8830   -1.5153   1.2573
C   3.0558   -0.5038   0.6336
C   3.5058   -0.3108   -0.7841
C   4.9381   0.1348   -0.9027
C   5.8814   -0.8677   -0.2959
C   5.1467   1.4906   -0.2557
C   1.6473   -0.9760   0.6648
O   1.3357   -2.0948   1.1744
N   0.6087   -0.2019   0.1316
C   -0.8123   -0.6253   0.1374
C   -1.5058   0.4225   0.9661
C   -2.9420   0.2879   1.1432
C   -3.9697   0.6969   0.3278
C   -4.0392   1.3838   -0.8697
C   -5.2292   1.6881   -1.4835
C   -6.4443   1.3062   -0.9081
C   -6.3919   0.6134   0.2998
C   -5.1873   0.3158   0.9043
N   -4.8889   -0.3174   2.0584
C   -3.5505   -0.3474   2.2257
C   -1.2166   -0.6956   -1.2686
O   -0.4812   -0.3202   -2.2259
O   -2.4672   -1.2028   -1.5881
H   3.8399   -1.4407   2.2998
H   3.5204   -2.4457   0.9134
H   3.1239   0.4260   1.2317
H   2.8885   0.4509   -1.3111
H   3.4099   -1.2553   -1.3547
H   5.1727   0.2040   -1.9931
H   6.8455   -0.7851   -0.8509
H   6.0424   -0.6518   0.7856
H   5.4846   -1.8938   -0.4547
H   4.1679   1.9494   0.0011
H   5.6742   2.1811   -0.9269
H   5.6765   1.3446   0.7138
H   0.7926   0.7237   -0.3008
H   -0.8631   -1.6342   0.6321
H   -0.9580   0.4869   1.9614
H   -1.2719   1.4386   0.5179
H   -3.1149   1.6895   -1.3340
H   -5.2784   2.2244   -2.4183
H   -7.3966   1.5309   -1.3673
H   -7.3380   0.3230   0.7361
H   -5.5902   -0.7204   2.7174
H   -3.0459   -0.7966   3.0707
H   -2.6585   -1.7104   -2.4420
