29

N   -2.0333   0.1162   1.3873
C   -1.6669   -0.7356   0.3088
C   -2.4094   -0.4318   -0.9733
C   -3.8566   -0.5831   -0.7883
O   -4.6743   -0.3619   -1.7088
O   -4.3427   -0.9850   0.4464
C   -0.1978   -0.4513   -0.0217
O   0.3110   -1.1173   -0.9537
N   0.5142   0.5011   0.6892
C   1.8638   0.8696   0.5369
C   2.6498   0.1121   -0.5227
C   2.8242   -1.3089   -0.2630
O   2.5220   -1.8593   0.8268
O   3.3532   -2.1109   -1.2684
C   2.0228   2.3223   0.4635
O   0.9792   3.0514   0.5445
O   3.2147   2.9972   0.3117
H   -2.1776   -0.4121   2.2708
H   -2.7871   0.7792   1.1483
H   -1.7590   -1.8103   0.5487
H   -2.0711   -1.0601   -1.8080
H   -2.2066   0.6344   -1.2181
H   -5.2302   -1.4700   0.5422
H   -0.0318   1.0209   1.4488
H   2.4073   0.5546   1.5417
H   3.6206   0.6592   -0.6540
H   2.1199   0.2475   -1.4870
H   3.8085   -2.9822   -1.0607
H   3.2330   3.8143   -0.2879
