43

N   -1.0868   1.1258   -1.0618
C   -0.9500   0.9342   0.3360
C   -1.8466   -0.0210   1.0068
C   -3.3216   0.2240   0.9664
C   -3.8865   0.2300   -0.4248
N   -5.2673   0.5110   -0.5371
C   -6.3116   -0.3199   -0.0769
N   -6.3896   -0.6199   1.1483
N   -7.3212   -0.7945   -1.0184
C   0.4568   0.5771   0.7328
O   0.6591   0.3485   1.9411
N   1.5187   0.4959   -0.1847
C   2.8738   0.1342   0.3179
C   3.2633   -1.1191   -0.4007
C   4.6021   -1.6361   -0.0760
C   5.6816   -0.7729   -0.5866
O   5.4957   -0.0433   -1.5699
N   6.9432   -0.7964   0.0635
C   3.7909   1.2401   0.1606
O   3.4886   2.1351   -0.7049
O   4.9774   1.4506   0.8586
H   -0.6584   1.9675   -1.4488
H   -0.7166   0.2955   -1.5689
H   -1.0687   1.9735   0.7925
H   -1.5047   -0.1069   2.0807
H   -1.6924   -1.0732   0.6191
H   -3.6681   1.0348   1.6059
H   -3.7508   -0.7364   1.4273
H   -3.5648   -0.7714   -0.8644
H   -3.3473   0.9607   -1.0823
H   -5.5609   1.4164   -1.0190
H   -5.8528   -0.3979   1.9479
H   -7.7344   -0.0957   -1.6414
H   -7.5748   -1.7899   -1.0218
H   1.3924   0.6754   -1.1842
H   2.7279   -0.0780   1.4272
H   2.4934   -1.9366   -0.2048
H   3.2082   -0.9673   -1.5254
H   4.7569   -2.6705   -0.5238
H   4.7180   -1.7671   1.0378
H   7.7491   -0.2664   -0.3353
H   7.0861   -1.3308   0.9308
H   5.1929   2.3805   1.2044
