33

N   2.5645   -1.1827   -0.2100
C   2.1631   0.0219   0.5940
C   2.9540   1.0931   0.0583
C   4.3605   0.3737   0.0549
C   3.9968   -1.0801   -0.1516
C   0.7376   -0.1267   0.8999
O   0.3416   -0.2303   2.0815
N   -0.2805   -0.1817   -0.1484
C   -1.6456   -0.4134   0.1574
C   -2.5105   0.7606   0.4699
C   -2.6046   1.8186   -0.5660
C   -3.9238   0.1382   0.6263
C   -2.2839   -1.2198   -0.8872
O   -1.9882   -1.1254   -2.1375
O   -3.2855   -2.1813   -0.6128
H   2.2659   -0.9584   -1.2104
H   2.7291   -0.2564   1.6116
H   3.1243   1.9552   0.8154
H   2.8678   1.4654   -0.9529
H   4.7272   0.4575   1.1043
H   5.0070   0.7675   -0.7081
H   4.3042   -1.7500   0.6934
H   4.4559   -1.4967   -1.0995
H   0.1175   -0.0390   -1.0902
H   -1.7441   -1.0343   1.1310
H   -2.2705   1.2019   1.4562
H   -3.6732   2.1582   -0.6260
H   -2.3398   1.4980   -1.5646
H   -2.0214   2.7175   -0.2378
H   -4.6124   0.7916   1.1440
H   -3.8097   -0.8126   1.1974
H   -4.2938   -0.1452   -0.3960
H   -3.4298   -2.9850   -1.1692
