32

N   2.1953   0.2496   1.2492
C   1.8408   0.9312   0.0531
C   2.7329   0.4258   -1.0606
C   2.5238   -1.0816   -1.2247
C   4.1616   0.6103   -0.5947
C   0.4107   0.8653   -0.2882
O   0.0312   1.4558   -1.3325
N   -0.5778   0.1900   0.4636
C   -1.9844   0.1423   0.1015
C   -2.4769   -1.2727   -0.0092
C   -3.8883   -1.2843   -0.4063
O   -4.4925   -2.4047   -0.3074
O   -4.6365   -0.2357   -0.8738
C   -2.7177   0.7730   1.2519
O   -2.0423   1.1954   2.2480
O   -4.0736   0.9366   1.3258
H   1.7567   -0.6563   1.4088
H   2.3537   0.8439   2.0771
H   2.0930   2.0155   0.1846
H   2.6007   0.9551   -2.0038
H   3.2981   -1.5164   -1.8827
H   2.6165   -1.5383   -0.2189
H   1.5358   -1.2823   -1.6339
H   4.4847   1.6445   -0.7612
H   4.8483   -0.1266   -1.0778
H   4.1680   0.4533   0.5199
H   -0.2595   -0.2978   1.3270
H   -2.2318   0.6804   -0.8069
H   -1.8772   -1.8792   -0.7186
H   -2.3822   -1.7660   0.9946
H   -5.4857   -0.3129   -1.4246
H   -4.5253   1.2868   2.1645
