37

N   -2.7868   -1.8234   -0.5946
C   -2.0831   -1.2717   -1.7496
C   -2.8412   -0.1079   -2.2851
C   -3.0440   0.9970   -1.3282
C   -2.6806   1.1028   -0.0097
N   -3.0769   2.2956   0.4679
C   -3.6866   2.9360   -0.5459
N   -3.6692   2.1426   -1.6523
C   -0.6718   -1.0213   -1.4155
O   0.0833   -0.5957   -2.3619
N   -0.1006   -1.2094   -0.1614
C   1.3053   -0.9732   0.2034
C   1.3032   0.0971   1.2436
C   2.6299   0.5221   1.7573
S   3.6728   1.1691   0.3959
C   5.2582   1.7126   1.0778
C   1.8459   -2.2805   0.6396
O   1.3219   -3.3802   0.2351
O   2.9172   -2.4131   1.4962
H   -3.7884   -1.6321   -0.5803
H   -2.4511   -2.7370   -0.2826
H   -2.0655   -2.0612   -2.5724
H   -2.3719   0.3344   -3.2068
H   -3.8817   -0.4847   -2.5504
H   -2.1712   0.3900   0.6148
H   -2.9685   2.7112   1.4199
H   -4.1255   3.9086   -0.5087
H   -0.7071   -1.5520   0.6258
H   1.8563   -0.6665   -0.7259
H   0.8254   0.9973   0.7714
H   0.6198   -0.2695   2.0690
H   3.1968   -0.2750   2.2453
H   2.4411   1.3569   2.5035
H   6.0127   0.9319   0.8502
H   5.5414   2.7069   0.6467
H   5.1696   1.7848   2.1786
H   3.1709   -3.3423   1.8189
