38

N   0.3778   -1.5359   -1.7279
C   0.1095   -2.1292   -0.4638
C   1.1945   -2.0808   0.5477
C   1.6622   -0.7615   0.9514
C   2.5322   0.0227   0.2272
C   3.2095   -0.1510   -0.9817
C   4.0509   0.8049   -1.5100
C   4.2515   1.9918   -0.8387
C   3.5883   2.1695   0.3525
C   2.7394   1.2042   0.8853
N   2.0042   1.1586   2.0138
C   1.3481   -0.0092   2.0792
C   -1.1872   -1.6244   0.1102
O   -1.5990   -2.0577   1.1990
N   -1.9764   -0.6466   -0.5633
C   -3.2240   -0.1537   -0.0199
C   -3.1536   1.3315   0.2744
S   -2.8023   2.2819   -1.2100
C   -4.3212   -0.4013   -0.9883
O   -4.1335   -0.9629   -2.1145
O   -5.6181   -0.0215   -0.6937
H   -0.3452   -1.8470   -2.4143
H   0.3874   -0.4968   -1.7481
H   -0.0916   -3.2247   -0.6603
H   0.8796   -2.6926   1.4183
H   2.0794   -2.6273   0.1120
H   3.0728   -1.0662   -1.5095
H   4.5662   0.6560   -2.4459
H   4.9162   2.7529   -1.2529
H   3.7367   3.0928   0.8867
H   1.9811   1.9408   2.7045
H   0.6768   -0.3710   2.8422
H   -1.6206   -0.2915   -1.4767
H   -3.4947   -0.6383   0.9290
H   -2.3995   1.5085   1.0802
H   -4.1208   1.6861   0.6798
H   -2.8285   3.6440   -0.8822
H   -6.4481   -0.4548   -1.0850
