34

N   0.6269   -1.3567   0.6006
C   0.5636   0.0876   0.7282
C   1.3375   0.7945   -0.3359
C   2.7792   0.4508   -0.3318
C   3.6829   1.1776   0.4159
C   5.0334   0.8800   0.4391
C   5.5049   -0.1760   -0.3057
C   4.5914   -0.9127   -1.0631
C   3.2455   -0.6094   -1.0808
C   -0.8675   0.4757   0.5817
O   -1.1205   1.7229   0.6667
N   -1.9070   -0.4689   0.3600
C   -3.2592   -0.0090   0.2304
C   -3.7692   -0.3238   -1.1765
S   -5.4837   0.2908   -1.2533
C   -4.1557   -0.6522   1.2216
O   -3.7609   -1.4850   2.0530
O   -5.5045   -0.2992   1.2125
H   0.3468   -1.6854   -0.3333
H   0.1224   -1.8031   1.3945
H   0.8889   0.3880   1.7294
H   1.2230   1.8852   -0.1659
H   0.8666   0.5912   -1.3224
H   3.3640   2.0186   1.0200
H   5.7156   1.4561   1.0252
H   6.5584   -0.4279   -0.3033
H   5.0120   -1.7369   -1.6343
H   2.6044   -1.2288   -1.6934
H   -1.6734   -1.4699   0.2957
H   -3.3162   1.0958   0.3274
H   -3.1905   0.1941   -1.9408
H   -3.7949   -1.4209   -1.3305
H   -6.2084   -0.5642   -2.0983
H   -6.0558   -0.4035   2.0674
