26

N   -0.3964   -2.0529   -0.8987
C   -0.1854   -0.6978   -0.5189
C   -1.4410   -0.1649   0.1356
C   -2.6033   -0.2387   -0.8314
C   -3.8488   0.2719   -0.2319
O   -4.8947   0.2752   -0.9104
O   -3.8811   0.7512   1.0780
C   1.0141   -0.4772   0.2920
O   1.7474   -1.4546   0.5872
N   1.3531   0.8277   0.7453
C   2.5075   1.1046   1.5374
C   3.7807   0.7460   0.8952
O   3.8255   0.2397   -0.2547
O   5.0024   0.9445   1.5178
H   0.4261   -2.5504   -1.2576
H   -0.9906   -2.6075   -0.2543
H   -0.0476   -0.1055   -1.4692
H   -1.2845   0.9123   0.4011
H   -1.6728   -0.7189   1.0582
H   -2.3978   0.3323   -1.7384
H   -2.7704   -1.2943   -1.1412
H   -4.6799   1.2918   1.3633
H   0.7033   1.5937   0.4656
H   2.4536   0.6122   2.5544
H   2.5250   2.1941   1.7762
H   5.7556   0.2655   1.4747
