34

N   1.7463   1.6867   -1.4507
C   0.8799   0.7740   -0.6884
C   1.2837   0.9782   0.7615
C   2.7176   0.6457   0.9600
C   3.2860   -0.5730   1.2950
N   4.6211   -0.4230   1.3713
C   4.9217   0.8480   1.0966
N   3.7722   1.5001   0.8466
C   -0.5082   1.1286   -0.9519
O   -0.7445   2.2576   -1.5133
N   -1.6125   0.3266   -0.6389
C   -1.5774   -0.9797   -0.0409
C   -2.7250   -1.0154   0.9480
C   -3.7192   -0.0766   0.3043
C   -3.0143   0.6222   -0.8332
C   -1.8163   -1.9824   -1.1252
O   -1.9994   -1.6323   -2.2966
O   -1.8260   -3.3168   -0.7763
H   1.3928   1.7838   -2.4279
H   1.7941   2.5835   -0.9380
H   1.1504   -0.2402   -0.9863
H   1.1315   2.0467   1.0716
H   0.6729   0.3875   1.4585
H   2.6996   -1.4792   1.4597
H   5.3134   -1.1909   1.6104
H   5.9310   1.2889   1.0770
H   -0.6698   -1.2536   0.4809
H   -2.4201   -0.6573   1.9399
H   -3.1469   -2.0336   1.0081
H   -4.0726   0.6645   1.0675
H   -4.6135   -0.6057   -0.0816
H   -3.3613   0.1959   -1.7845
H   -3.2274   1.7103   -0.7839
H   -2.2599   -3.9693   -1.4393
