29

N   4.0070   -0.4312   0.5123
C   2.8614   0.3745   0.1433
C   3.1318   0.9341   -1.2531
C   1.6087   -0.4245   0.1535
O   1.6569   -1.6325   0.4585
N   0.3691   0.1385   -0.1701
C   -0.8867   -0.5309   -0.1922
C   -1.8039   0.0133   0.8844
C   -2.0933   1.4651   0.7447
C   -3.0141   -0.8624   0.9540
C   -1.5369   -0.5477   -1.5215
O   -1.0400   -0.0227   -2.5522
O   -2.7679   -1.1622   -1.7099
H   4.3217   -1.0621   -0.2529
H   3.8705   -0.9154   1.4238
H   2.8169   1.2192   0.8716
H   3.9676   0.4111   -1.7417
H   3.4482   2.0074   -1.1704
H   2.2292   0.8710   -1.8713
H   0.3682   1.1713   -0.4248
H   -0.6999   -1.5949   0.0977
H   -1.2415   -0.1225   1.8523
H   -1.8820   1.8981   -0.2378
H   -3.1843   1.6171   0.9409
H   -1.5677   2.1000   1.5010
H   -3.2993   -1.0304   2.0125
H   -3.8364   -0.3825   0.3874
H   -2.7878   -1.8614   0.5208
H   -3.0155   -1.6371   -2.5846
