33

N   3.1219   -1.5607   -1.4072
C   2.5077   -1.0296   -0.2233
C   3.2125   0.1193   0.3964
O   4.5113   -0.3358   0.7135
C   3.4038   1.2983   -0.5248
C   1.0647   -0.7404   -0.5304
O   0.5479   -1.1243   -1.5882
N   0.2531   -0.0149   0.3870
C   -1.1575   0.2945   0.1623
C   -2.0145   -0.4683   1.1278
C   -3.4778   -0.2762   1.0136
C   -3.9850   -0.7097   -0.3101
O   -3.3206   -1.2162   -1.2253
O   -5.3605   -0.5225   -0.5443
C   -1.4063   1.7408   0.1468
O   -0.3870   2.4752   -0.1605
O   -2.5573   2.4164   0.4120
H   2.7384   -2.5054   -1.6228
H   2.9546   -0.9012   -2.1948
H   2.5390   -1.8682   0.5318
H   2.7455   0.3656   1.3531
H   4.4441   -0.8421   1.5874
H   4.2332   1.9403   -0.1120
H   3.7429   0.9180   -1.5186
H   2.4897   1.8934   -0.5868
H   0.7184   0.3119   1.2553
H   -1.4472   -0.0552   -0.8757
H   -1.7751   -1.5605   1.1253
H   -1.7372   -0.1576   2.1831
H   -3.8427   0.7446   1.2400
H   -4.0332   -0.9292   1.7583
H   -5.8071   -0.7987   -1.4025
H   -2.9198   3.0982   -0.2391
