47

N   3.0480   -2.9966   0.3278
C   2.6717   -1.9025   1.2351
C   3.6946   -0.8352   1.0480
C   3.5028   0.3696   1.8723
C   4.0437   0.4220   3.1295
C   3.8553   1.5611   3.8787
C   3.1278   2.6367   3.3629
C   2.5972   2.5500   2.0929
C   2.7812   1.4140   1.3371
C   1.3311   -1.4038   0.8506
O   0.7378   -0.4875   1.5004
N   0.6132   -1.9123   -0.2693
C   -0.7018   -1.4167   -0.6383
C   -0.6947   -0.7437   -1.9781
C   -2.0635   -0.2652   -2.2839
C   -2.6965   0.8463   -1.7334
C   -2.2708   1.7763   -0.7927
C   -3.1156   2.8063   -0.4134
C   -4.3705   2.9153   -0.9599
C   -4.8125   2.0043   -1.8939
C   -3.9519   0.9768   -2.2635
N   -4.1119   -0.0326   -3.1334
C   -2.9995   -0.7872   -3.1636
C   -1.7370   -2.4582   -0.5344
O   -1.4519   -3.6356   -0.1761
O   -3.0641   -2.1967   -0.8223
H   3.0784   -2.5993   -0.6373
H   2.3279   -3.7515   0.3193
H   2.6760   -2.3159   2.2663
H   3.7983   -0.5663   -0.0262
H   4.7053   -1.2548   1.3293
H   4.6163   -0.4141   3.5457
H   4.2593   1.6536   4.8719
H   2.9753   3.5298   3.9393
H   2.0244   3.3929   1.6838
H   2.3542   1.3719   0.3311
H   1.0532   -2.6706   -0.8446
H   -0.9643   -0.6336   0.1100
H   0.0221   0.1120   -1.9548
H   -0.3629   -1.4307   -2.7897
H   -1.2978   1.6930   -0.3683
H   -2.7694   3.5263   0.3231
H   -5.0189   3.7408   -0.6411
H   -5.8044   2.1208   -2.3021
H   -4.9847   -0.1777   -3.6862
H   -2.8487   -1.6739   -3.7813
H   -3.8017   -2.8577   -0.6761
