28

N   2.9585   -0.1282   0.5506
C   2.4424   1.1335   0.0968
C   2.9588   1.3315   -1.3291
S   4.7522   1.3395   -1.2976
C   0.9575   1.0728   0.0622
O   0.2913   2.0671   -0.2969
N   0.2408   -0.1007   0.4303
C   -1.2317   -0.1496   0.3929
C   -1.6949   -1.1796   -0.5825
C   -3.1695   -1.2459   -0.6388
O   -3.7654   -2.0165   0.1501
N   -3.8886   -0.4573   -1.5624
C   -1.7314   -0.4128   1.7616
O   -0.8891   -0.5760   2.7144
O   -3.0486   -0.5021   2.1280
H   2.6458   -0.2894   1.5291
H   4.0091   -0.1230   0.5400
H   2.7807   1.9920   0.6850
H   2.5909   2.3081   -1.7210
H   2.5420   0.4854   -1.9351
H   5.2833   0.0376   -1.2357
H   0.7963   -0.9263   0.7277
H   -1.5722   0.8680   0.0476
H   -1.2768   -0.9334   -1.5841
H   -1.3223   -2.1841   -0.2384
H   -3.3865   0.1666   -2.2219
H   -4.9401   -0.4939   -1.5919
H   -3.3325   -1.0832   2.9194
