38

N   0.3135   -0.5286   1.4268
C   0.4180   -0.0819   0.0387
C   1.5234   -0.7919   -0.7041
C   2.8693   -0.4988   -0.1460
C   3.7762   0.1336   -0.9690
C   5.0137   0.5530   -0.4737
C   5.3526   0.3478   0.8388
O   6.5982   0.7889   1.2656
C   4.4262   -0.2897   1.6424
C   3.1849   -0.7186   1.1563
C   -0.8425   -0.0981   -0.6803
O   -0.9636   -0.6243   -1.8121
N   -2.0078   0.5036   -0.0971
C   -3.2444   0.4651   -0.8764
C   -3.9054   -0.8227   -0.2565
O   -3.0381   -1.8734   -0.5238
C   -3.8579   -0.5165   1.2402
C   -4.1825   1.5271   -0.6370
O   -5.2646   1.4219   -0.0151
O   -3.9271   2.8326   -1.1124
H   -0.5932   -0.2136   1.7935
H   0.2558   -1.5864   1.3336
H   0.7995   1.0167   0.0724
H   1.4791   -0.3469   -1.7457
H   1.3648   -1.8730   -0.7769
H   3.5555   0.3073   -1.9980
H   5.6948   1.0412   -1.1480
H   6.6679   1.7672   1.5955
H   4.6924   -0.4583   2.6811
H   2.5376   -1.2069   1.8542
H   -1.9761   0.9509   0.8179
H   -3.1047   0.2140   -1.9034
H   -4.9009   -0.9358   -0.6311
H   -3.1643   -2.5917   0.1670
H   -2.8143   -0.7398   1.5755
H   -4.5602   -1.1783   1.7505
H   -4.0856   0.5294   1.4308
H   -4.0903   3.5749   -0.3755
