29

N   4.1272   0.8708   -0.2621
C   3.9579   -0.3694   0.4217
C   2.5512   -0.8415   0.3968
O   2.2577   -1.9432   0.9731
N   1.5016   -0.1585   -0.2219
C   0.0938   -0.6942   -0.2090
C   -0.7573   0.3479   0.3857
C   -2.1894   0.1952   0.5935
C   -3.1142   -0.0186   -0.5383
C   -2.6933   1.4365   1.3709
C   -0.2221   -0.9800   -1.6159
O   0.6050   -0.6101   -2.5116
O   -1.3499   -1.6298   -2.0804
H   3.6381   0.9714   -1.1486
H   4.2804   1.6985   0.3162
H   4.3798   -0.3585   1.4477
H   4.5769   -1.1313   -0.1314
H   1.6721   0.7391   -0.7076
H   0.1591   -1.6321   0.3412
H   -0.5866   1.3362   -0.1511
H   -0.3054   0.5673   1.4160
H   -2.3961   -0.6455   1.3276
H   -3.4566   -1.0767   -0.6082
H   -2.8596   0.4620   -1.4852
H   -4.0988   0.5084   -0.2518
H   -1.8444   2.0777   1.6320
H   -3.3468   1.1522   2.2035
H   -3.3399   2.0557   0.6797
H   -1.2404   -2.3295   -2.8130
