34

N   -2.6591   -1.7705   -0.8611
C   -2.8300   -0.3615   -1.0415
C   -3.8296   0.1546   -0.0614
O   -5.0401   -0.5272   -0.3088
C   -3.3738   -0.0424   1.3611
C   -1.5348   0.3403   -0.9939
O   -1.4176   1.5863   -1.1266
N   -0.3487   -0.4133   -0.7887
C   0.9814   0.2601   -0.7345
C   1.5629   -0.1430   0.5736
C   2.8623   0.4261   0.9206
C   3.6377   1.4187   0.3746
N   4.8014   1.5494   1.0712
C   4.7356   0.6321   2.0484
N   3.5845   -0.0461   1.9721
C   1.8243   -0.3593   -1.8177
O   1.3023   -1.2536   -2.5298
O   3.1240   -0.0268   -2.0936
H   -2.2422   -2.0371   0.0423
H   -3.5538   -2.2917   -0.9686
H   -3.2488   -0.1946   -2.0649
H   -4.0789   1.2376   -0.2473
H   -5.5667   -0.5083   0.5174
H   -3.2853   0.9205   1.9072
H   -4.0913   -0.7373   1.8602
H   -2.3805   -0.5294   1.4099
H   -0.4134   -1.4441   -0.6757
H   0.9052   1.3299   -0.8663
H   1.6227   -1.2728   0.5778
H   0.7778   0.0668   1.3529
H   3.3677   2.0237   -0.4682
H   5.5900   2.2071   0.9074
H   5.4893   0.4316   2.8187
H   3.7254   -0.6259   -2.6662
