34

N   -2.9807   0.1221   2.5152
C   -2.3844   -0.7183   1.5232
C   -1.9948   -0.0158   0.3017
O   -2.1791   1.2140   0.1642
N   -1.3905   -0.7122   -0.7757
C   -0.9702   -0.1398   -2.0094
C   0.5373   -0.2224   -2.1132
C   1.2292   0.4949   -1.0433
C   1.4963   0.1142   0.2426
C   1.2631   -1.0269   0.9495
C   1.6663   -1.1390   2.2820
C   2.3082   -0.0868   2.8937
C   2.5429   1.0604   2.1799
C   2.1449   1.1811   0.8511
N   2.2703   2.1787   -0.0328
C   1.7216   1.7855   -1.1917
C   -1.5171   -0.8001   -3.2017
O   -2.2826   -1.7776   -3.0928
O   -1.1836   -0.3378   -4.4545
H   -2.7398   -0.2562   3.4573
H   -2.7948   1.1313   2.4136
H   -1.4483   -1.1611   1.9713
H   -3.0478   -1.5822   1.3385
H   -1.2518   -1.7432   -0.6568
H   -1.2982   0.9403   -2.0615
H   0.8418   0.1411   -3.1209
H   0.7828   -1.3204   -2.0411
H   0.7747   -1.8736   0.4968
H   1.4666   -2.0646   2.8236
H   2.6343   -0.1317   3.9177
H   3.0542   1.8881   2.6784
H   2.7293   3.0924   0.1967
H   1.6684   2.3710   -2.0954
H   -1.6682   -0.6055   -5.3061
