42

N   3.2890   -0.3673   -1.1441
C   3.2539   -0.1364   0.2864
C   3.2805   1.3686   0.4877
C   4.5705   1.8904   -0.1369
C   3.1594   1.7740   1.9191
C   1.9934   -0.6894   0.8826
O   1.7390   -0.6146   2.0939
N   1.0745   -1.3134   0.0227
C   -0.1877   -1.8838   0.5227
C   -1.2776   -1.1175   -0.1563
C   -2.6644   -1.5424   0.2184
C   -3.6465   -0.6681   -0.5495
N   -3.4638   0.7103   -0.2123
C   -4.3086   1.6740   -0.8582
N   -4.7748   1.4292   -2.0389
N   -4.6121   2.8971   -0.1596
C   -0.1888   -3.3141   0.1698
O   0.7738   -3.8102   -0.4591
O   -1.2621   -4.1056   0.5393
H   4.2685   -0.3363   -1.4476
H   2.7211   0.4154   -1.5820
H   4.1545   -0.5904   0.7324
H   2.4472   1.8323   -0.0846
H   5.4562   1.3973   0.3135
H   4.5957   1.6664   -1.2211
H   4.6716   2.9751   -0.0036
H   3.7605   2.6903   2.1094
H   3.4060   0.9713   2.6410
H   2.0907   2.0533   2.1478
H   1.2490   -1.3972   -1.0001
H   -0.2506   -1.7307   1.6248
H   -1.1779   -1.2452   -1.2618
H   -1.1438   -0.0554   0.1039
H   -2.9115   -2.5803   -0.0123
H   -2.8577   -1.3427   1.2931
H   -4.6861   -0.9935   -0.3462
H   -3.4488   -0.8157   -1.6306
H   -2.7723   1.0948   0.4646
H   -5.3890   2.1636   -2.4724
H   -5.4704   2.9124   0.4089
H   -3.9922   3.7310   -0.2250
H   -1.4681   -4.9966   0.0786
