33

N   2.1649   -2.1437   -1.1737
C   1.5189   -1.2132   -0.3014
C   2.2832   0.0722   -0.1403
C   3.6510   -0.2573   0.4593
C   4.4185   0.9963   0.6071
O   4.6107   1.7066   -0.4123
O   4.9214   1.3957   1.8160
C   0.1574   -0.9183   -0.7656
O   -0.2748   -1.4513   -1.8220
N   -0.6590   -0.0453   -0.0334
C   -2.0097   0.2401   -0.4926
C   -2.9612   -0.1826   0.6066
O   -2.8036   -1.5618   0.8592
C   -4.3777   0.0635   0.1689
C   -2.1256   1.6865   -0.7532
O   -1.1534   2.4630   -0.5773
O   -3.3166   2.2269   -1.2003
H   2.6565   -2.9234   -0.6702
H   1.4711   -2.6042   -1.8281
H   1.4528   -1.6818   0.7203
H   1.7170   0.7540   0.5073
H   2.4024   0.5455   -1.1165
H   4.1839   -0.9563   -0.2313
H   3.4913   -0.6982   1.4442
H   5.2110   2.3738   1.9961
H   -0.3587   0.4308   0.8431
H   -2.2544   -0.2973   -1.4289
H   -2.7191   0.3080   1.5671
H   -3.5329   -1.8088   1.4550
H   -4.8311   0.9477   0.6574
H   -4.3924   0.1526   -0.9398
H   -5.0092   -0.8379   0.4280
H   -3.5326   3.2181   -1.0564
