27

N   3.3156   0.7531   -0.8522
C   2.1651   -0.0144   -0.5360
C   2.3997   -0.7608   0.7550
C   0.9673   0.8354   -0.4724
O   1.0677   2.0709   -0.6860
N   -0.2809   0.2473   -0.1713
C   -1.5443   0.9567   -0.0743
C   -2.5308   -0.0022   -0.6552
C   -2.0488   -1.3372   -0.1759
C   -0.5714   -1.1339   0.0967
C   -1.8541   1.2839   1.3407
O   -2.8905   1.8895   1.6437
O   -0.9730   0.9072   2.3341
H   4.0695   0.2968   -1.3403
H   3.2533   1.7519   -0.8219
H   2.0591   -0.8024   -1.3398
H   2.0144   -1.8066   0.6771
H   1.9289   -0.2213   1.6099
H   3.4710   -0.8082   0.9453
H   -1.4945   1.8551   -0.6927
H   -2.5248   0.0867   -1.7571
H   -3.5690   0.1629   -0.2944
H   -2.2336   -2.0849   -0.9775
H   -2.5898   -1.7126   0.7176
H   -0.0305   -1.8270   -0.5773
H   -0.3110   -1.4408   1.1427
H   -1.2645   0.8550   3.3173
