46

N   1.0830   1.5007   0.0854
C   0.8703   0.1024   -0.2562
C   1.2569   -0.7670   0.9197
C   2.7065   -0.4936   1.1890
C   3.8119   -0.9333   0.4954
C   3.9182   -1.7306   -0.6173
C   5.1718   -2.0208   -1.1150
C   6.3183   -1.5200   -0.5085
C   6.1731   -0.7339   0.5918
C   4.9482   -0.4265   1.1109
N   4.5457   0.3085   2.1601
C   3.1985   0.2816   2.2257
C   -0.5394   -0.1043   -0.6615
O   -0.9168   -1.2572   -0.9983
N   -1.4908   0.9346   -0.6897
C   -2.8829   0.6837   -1.0999
C   -3.7946   1.0089   0.0726
C   -5.2112   0.7356   -0.3833
C   -3.4781   0.1492   1.2755
C   -3.6456   -1.3207   0.9721
C   -3.2613   1.6147   -2.1948
O   -2.3850   2.4363   -2.5828
O   -4.4893   1.6292   -2.7962
H   0.8324   2.1206   -0.6947
H   0.6729   1.7600   1.0033
H   1.5658   -0.1377   -1.0808
H   0.6644   -0.5718   1.8208
H   1.1792   -1.8300   0.6102
H   2.9988   -2.1081   -1.0700
H   5.2312   -2.6488   -1.9898
H   7.3086   -1.7485   -0.9004
H   7.0706   -0.3380   1.0717
H   5.1874   0.8036   2.7972
H   2.6227   0.7933   2.9781
H   -1.1723   1.8800   -0.4111
H   -3.0274   -0.3715   -1.3677
H   -3.6198   2.0628   0.3326
H   -5.6302   1.7052   -0.7688
H   -5.2164   0.0458   -1.2535
H   -5.8413   0.3494   0.4511
H   -4.2565   0.4057   2.0435
H   -2.5089   0.3896   1.7185
H   -2.6797   -1.8437   1.0502
H   -4.3349   -1.8267   1.6925
H   -4.0671   -1.5121   -0.0295
H   -4.8867   2.5434   -3.0293
