33

N   0.0633   -1.2117   1.3040
C   0.6078   -0.2759   0.3559
C   -0.1303   1.0133   0.3195
C   -1.5612   0.9022   -0.0732
C   -2.4320   0.0609   0.7943
N   -3.8114   0.1069   0.2612
C   -4.0716   -0.5085   -0.9887
N   -3.2057   -1.3107   -1.4597
N   -5.2566   -0.2472   -1.7055
C   2.0518   -0.1057   0.6417
O   2.5609   -0.7573   1.5758
N   2.8399   0.7738   -0.1242
C   4.2427   0.9390   0.1518
C   4.9783   -0.3433   0.0093
O   4.3168   -1.3603   -0.3171
O   6.3238   -0.4683   0.2137
H   0.6699   -2.0594   1.3596
H   0.0893   -0.7656   2.2576
H   0.5875   -0.7583   -0.6749
H   -0.0626   1.5252   1.3077
H   0.3628   1.6832   -0.4244
H   -1.9618   1.9620   -0.1555
H   -1.5903   0.5270   -1.1318
H   -2.1100   -1.0039   0.7113
H   -2.4748   0.3730   1.8367
H   -4.5873   0.5675   0.7625
H   -3.3507   -1.7789   -2.3599
H   -6.0931   0.1461   -1.2425
H   -5.3443   -0.4388   -2.7367
H   2.3884   1.3042   -0.8968
H   4.6935   1.7322   -0.4951
H   4.3811   1.2477   1.2246
H   6.8858   -1.1431   -0.3014
