47

N   -1.2901491   -2.5633157   0.3119909
C   -0.8695576   -1.1868944   0.1714171
C   -1.6772023   -0.2917238   1.1163124
C   -3.1365021   -0.3622582   0.8292593
C   -3.8234628   0.2646362   -0.2632873
C   -3.4231146   1.1093394   -1.3024764
C   -4.3662353   1.5498249   -2.2086550
C   -5.7094100   1.1642543   -2.1000106
C   -6.1367761   0.3324476   -1.0835311
C   -5.1838571   -0.1105135   -0.1729735
N   -5.3054635   -0.9270317   0.9192539
C   -4.0774948   -1.0748275   1.5152384
C   0.6401087   -1.1531622   0.3748939
O   1.3432233   -2.0810066   0.0123985
N   1.1635657   -0.0346572   0.9170215
C   2.5804045   0.0927345   1.1192553
C   3.2997984   0.4964867   -0.1805892
C   4.7949400   0.2464663   -0.1689565
S   5.4851626   0.7218400   -1.7668955
C   7.2080523   0.3162538   -1.4676273
C   2.7817907   1.1121407   2.2134396
O   1.9329252   1.8720338   2.5980976
O   4.0236603   1.0996927   2.7076112
H   -0.5970863   -3.1614369   -0.1201986
H   -2.1815130   -2.7075298   -0.1399585
H   -1.0093358   -0.7977674   -0.8527502
H   -1.3572513   0.7509500   1.0141723
H   -1.4828859   -0.6052644   2.1443305
H   -2.3880678   1.4171963   -1.3964132
H   -4.0680570   2.2044734   -3.0181618
H   -6.4261370   1.5262808   -2.8266888
H   -7.1765374   0.0384762   -1.0018780
H   -6.1587689   -1.3386149   1.2451259
H   -3.9580709   -1.6911737   2.3920754
H   0.5832857   0.6838435   1.3159361
H   2.9806131   -0.8704168   1.4489144
H   3.0840659   1.5449501   -0.4048111
H   2.8463787   -0.1055655   -0.9695996
H   5.2911138   0.8185128   0.6156868
H   4.9908726   -0.8152300   0.0049447
H   7.6136646   0.9008798   -0.6407315
H   7.3316561   -0.7477662   -1.2617158
H   7.7587786   0.5634313   -2.3745366
H   4.0689756   1.7992114   3.3719704
C   2.9578685109976366   -4.211725428781218   -0.8200425581414078
O   2.0193285577411313   -4.792919190370565   -1.1528571726506
O   3.8964084642541414   -3.6305316671918706   -0.4872279436322154
