33

N   -2.0630471   -0.7623659   0.9055073
C   -1.9036719   -0.1662731   -0.4179444
C   -2.8827353   1.0120955   -0.4961047
C   -3.9863032   0.6329231   0.5098052
C   -3.5041752   -0.6945568   1.1284745
C   -0.4698777   0.1774212   -0.7507097
O   -0.1701746   1.0568413   -1.5374023
N   0.4490564   -0.5848790   -0.1183768
C   1.8490346   -0.4509692   -0.3955336
C   2.4264484   0.8226096   0.2461475
C   3.8411126   1.1476522   -0.1376584
O   4.7250187   1.3987853   0.6338691
O   4.0066016   1.1691730   -1.4694603
C   2.5434606   -1.6863454   0.1290235
O   2.0170614   -2.5346445   0.7959754
O   3.8315767   -1.7141191   -0.2194988
H   -1.6075600   -0.1560982   1.5811845
H   -2.2071527   -0.9276668   -1.1492225
H   -2.3725020   1.9327002   -0.2097379
H   -3.2576193   1.1616180   -1.5072979
H   -4.0894987   1.4010802   1.2778500
H   -4.9617903   0.5235981   0.0345040
H   -3.9665238   -1.5424690   0.6154391
H   -3.7315446   -0.7912592   2.1899933
H   0.1480256   -1.3455102   0.4744259
H   2.0125415   -0.3859658   -1.4750279
H   2.3726533   0.7656416   1.3320767
H   1.7937179   1.6434921   -0.1001420
H   4.9316354   1.3901208   -1.6316364
H   4.2262315   -2.4928299   0.1923774
C   0.5191319909095489   3.079476605101397   -3.3467676158735067
O   -0.5977904220690153   3.3159515958542864   -3.507928722020623
O   1.636054403888113   2.8430016143485073   -3.1856065097263904
