  33

 N         -2.2824         -1.1088         -1.7023
 C         -1.4059         -0.4119         -0.7326
 C         -1.6424         -1.147         0.57
 C         -3.0964         -1.0621         0.9233
 C         -3.5168         0.3246         1.1351
 O         -4.7556         0.5929         1.1292
 O         -2.6091         1.3256         1.3393
 C         -0.0117         -0.4585         -1.1962
 O         0.2118         -1.1092         -2.275
 N         1.0336         0.165         -0.5167
 C         2.4274         0.1232         -0.9713
 C         2.8976         1.5256         -0.6271
 C         2.1427         1.9125         0.5973
 C         0.9832         0.9367         0.6871
 C         3.148         -0.9168         -0.2179
 O         4.3662         -1.1038         -0.4477
 O         2.4997         -1.6737         0.7247
 H         -2.0409         -2.1185         -1.6455
 H         -2.1491         -0.6925         -2.6342
 H         -1.8277         0.5962         -0.6432
 H         -1.3721         -2.2157         0.4229
 H         -0.9905         -0.7239         1.3515
 H         -3.7477         -1.4592         0.0942
 H         -3.3494         -1.7139         1.7948
 H         -2.8276         2.3135         1.2442
 H         2.5173         -0.0358         -2.0482
 H         2.7332         2.2266         -1.4765
 H         3.975         1.4979         -0.3947
 H         2.7905         1.8183         1.4949
 H         1.7439         2.9235         0.4773
 H         1.1251         0.296         1.5892
 H         0.0354         1.4856         0.7876
 H         2.9945         -2.1124         1.4938
