  37

 N         2.161         1.3168         -1.5363
 C         1.9253         -0.0866         -1.5918
 C         2.889         -0.853         -0.7109
 C         4.3273         -0.627         -1.1237
 S         5.3753         -1.5957         -0.0078
 C         5.305         -0.9836         1.6776
 C         0.5493         -0.4632         -1.1707
 O         0.1904         -1.671         -1.1463
 N         -0.4312         0.4821         -0.7777
 C         -1.7951         0.0732         -0.3628
 C         -2.0327         0.4203         1.0512
 C         -3.3992         0.0568         1.5177
 C         -4.4476         0.862         0.883
 O         -4.2199         2.0138         0.4234
 N         -5.7619         0.3349         0.7873
 C         -2.6883         0.6016         -1.3714
 O         -2.3942         1.639         -2.0061
 O         -3.8822         -0.0275         -1.6648
 H         2.6886         1.6524         -0.7154
 H         2.3901         1.7548         -2.4352
 H         2.1415         -0.4184         -2.6371
 H         2.8078         -0.56         0.3446
 H         2.639         -1.9326         -0.7648
 H         4.5348         0.4801         -1.0322
 H         4.4728         -0.9884         -2.1448
 H         6.2533         -1.2217         2.2068
 H         5.115         0.1127         1.6888
 H         4.4474         -1.4737         2.1883
 H         -0.1879         1.4895         -0.7798
 H         -1.8371         -1.0645         -0.407
 H         -1.3227         -0.2201         1.6759
 H         -1.8067         1.5036         1.2807
 H         -3.6104         -1.0156         1.2002
 H         -3.4959         0.0835         2.6326
 H         -5.8787         -0.6421         0.3928
 H         -6.6068         0.8627         1.0852
 H         -4.4142         0.1048         -2.5045
