40

N   2.1706538   -0.3268678   2.2614682
C   1.1176291   -0.8850645   1.4392386
C   0.1220625   -1.6571781   2.3112482
C   0.7589709   -2.8693140   2.9640499
S   -0.3170016   -3.7381928   4.1198277
C   -0.2925972   -2.5901682   5.5020006
C   0.3462380   0.1896628   0.6782018
O   0.1995953   1.3111480   1.1295655
N   -0.1870634   -0.1941237   -0.5028434
C   -1.0884871   0.6576840   -1.2306877
C   -0.3680749   1.7403874   -2.0466054
C   0.5436143   1.1680755   -3.1149617
S   1.4850522   2.4055591   -4.0218494
C   0.1706836   3.2009922   -4.9535400
C   -1.9441293   -0.2229413   -2.1074168
O   -1.8036600   -1.4107254   -2.2317926
O   -2.8832765   0.4746405   -2.7529737
H   2.9425101   -0.0224642   1.6825536
H   1.8072395   0.5124061   2.7020584
H   1.5674159   -1.5804661   0.7219158
H   -0.7394188   -1.9714526   1.7165789
H   -0.2554276   -0.9686383   3.0725864
H   1.0234742   -3.6120330   2.2069550
H   1.6801365   -2.5823223   3.4734225
H   -0.8741720   -3.0466219   6.3023419
H   -0.7477949   -1.6331598   5.2468598
H   0.7269144   -2.4304033   5.8549776
H   -0.1525881   -1.1592603   -0.7914007
H   -1.7474999   1.1689798   -0.5212740
H   0.2092638   2.3431217   -1.3452144
H   -1.1243758   2.3880455   -2.4922767
H   1.2955100   0.5195279   -2.6606818
H   -0.0127645   0.5577836   -3.8335016
H   0.6489345   3.9206757   -5.6171529
H   -0.3711881   2.4740827   -5.5605301
H   -0.5249928   3.7364576   -4.3079018
H   -3.3811862   -0.1516323   -3.2931456
C   -1.4765826331136398   -4.176435030912135   -2.5213968706013667
O   -0.596093088785139   -4.150207564586265   -1.7774484299562407
O   -2.3570721774421406   -4.202662497238005   -3.265345311246493
