  33

 N         3.3835         -2.2752         0.5164
 C         2.543         -1.1614         0.9121
 C         3.4527         0.0558         1.0322
 S         4.219         0.3425         -0.591
 C         1.4853         -0.9518         -0.092
 O         1.424         -1.6961         -1.1036
 N         0.4963         0.0661         0.005
 C         -0.5257         0.2434         -0.997
 C         -1.9145         0.0419         -0.461
 C         -2.1151         -1.3465         0.1023
 C         -2.283         1.0524         0.5982
 C         -3.6914         0.7724         1.0765
 C         -0.4276         1.596         -1.6038
 O         0.441         2.4336         -1.2596
 O         -1.3472         1.9207         -2.59
 H         4.0389         -1.9203         -0.2145
 H         2.8319         -3.1011         0.2079
 H         2.155         -1.3885         1.9216
 H         4.2732         -0.2474         1.7313
 H         2.8987         0.9394         1.3938
 H         4.9266         1.5551         -0.5964
 H         0.5346         0.6891         0.8362
 H         -0.365         -0.5308         -1.7795
 H         -2.6159         0.1521         -1.3137
 H         -1.727         -2.1112         -0.5945
 H         -1.7053         -1.4421         1.131
 H         -3.2271         -1.5105         0.1397
 H         -1.6039         0.9203         1.4844
 H         -2.1976         2.0877         0.2792
 H         -3.7943         -0.1887         1.5913
 H         -4.3215         0.7148         0.1426
 H         -4.0983         1.6254         1.6603
 H         -1.1434         2.663         -3.2382
