39

N   -2.8370526   -1.3600032   -1.7140993
C   -1.8617791   -0.7301871   -0.8520628
C   -2.2522120   -0.9158146   0.6237298
C   -3.1035671   0.2256023   1.1366103
C   -2.3135162   1.5112992   1.2765755
O   -1.1213688   1.5992855   1.0309954
N   -3.0237116   2.5782132   1.7018872
C   -0.4326966   -1.2298523   -1.0551427
O   -0.1750103   -2.2559107   -1.6561486
N   0.4972737   -0.4240576   -0.4901729
C   1.8563392   -0.8455606   -0.3444608
C   2.8506294   0.3227921   -0.4563357
C   2.6463508   1.3546814   0.6450051
C   2.7643057   0.9574414   -1.8348435
C   2.0425473   -1.6026006   0.9586946
O   1.2239398   -1.7150046   1.8288199
O   3.2665239   -2.1499623   1.0393623
H   -2.6884746   -1.0634730   -2.6704701
H   -2.6554603   -2.3585725   -1.7181425
H   -1.8535577   0.3403510   -1.0735275
H   -2.8081091   -1.8516289   0.7062817
H   -1.3642553   -1.0126455   1.2502599
H   -3.5292145   -0.0125923   2.1166186
H   -3.9502020   0.3999151   0.4642091
H   -4.0007821   2.5119519   1.9147636
H   -2.5514368   3.4552990   1.8285956
H   0.1431519   0.3062454   0.1185130
H   2.0594041   -1.5599159   -1.1466808
H   3.8446800   -0.1162054   -0.3370424
H   2.7178077   0.9101010   1.6402038
H   1.6705130   1.8401306   0.5680167
H   3.4057635   2.1353382   0.5744940
H   3.5042566   1.7536275   -1.9357364
H   1.7766903   1.3916135   -2.0007677
H   2.9447594   0.2235189   -2.6228861
H   3.3072704   -2.6134203   1.8846837
C   -0.6862299707390456   -1.9772923544001886   3.8592032580992646
O   -1.4298945780468522   -1.3498076116222388   3.240628404570109
O   0.057434636568761355   -2.604777097178138   4.47777811162842
