33

N   2.9899904   0.7684587   1.3767084
C   2.1042709   0.6761478   0.2496390
C   2.6009224   -0.3960268   -0.7374576
O   3.8854776   -0.0351936   -1.2156033
C   2.7173507   -1.7623138   -0.1084667
C   0.6908153   0.4351146   0.7706963
O   0.3986311   0.6006548   1.9376382
N   -0.2268680   0.0637448   -0.1560081
C   -1.6175308   -0.1211249   0.1909073
C   -2.4038553   1.1713779   0.0373762
C   -3.8454804   1.0006396   0.4080195
O   -4.3720013   -0.0516175   0.6519668
O   -4.5014671   2.1682695   0.4272438
C   -2.1502188   -1.1999031   -0.7336077
O   -2.3788912   -1.0101367   -1.8989838
O   -2.2575981   -2.3840196   -0.1382805
H   2.5096482   1.1729294   2.1682072
H   3.8268715   1.2841324   1.1580176
H   2.0291070   1.6187491   -0.3278890
H   1.9082727   -0.4487112   -1.5906629
H   3.8035284   0.7507930   -1.7585791
H   1.7405197   -2.1165480   0.2248186
H   3.1173090   -2.4704291   -0.8337622
H   3.3811035   -1.7124390   0.7529706
H   0.0228079   0.0347087   -1.1293802
H   -1.6564482   -0.4649372   1.2223605
H   -2.3615078   1.5181589   -0.9986203
H   -1.9576957   1.9478608   0.6606680
H   -5.4185484   1.9716570   0.6561201
H   -2.5783151   -3.0099965   -0.8001572
C   -5.598855983902761   -2.503498425913741   1.2203922654096961
O   -4.595785028474248   -3.0453387778672227   1.0481520512590614
O   -6.601926939331275   -1.9616580739602596   1.3926324795603306
