  30

 N         1.7845         2.0935         0.6183
 C         1.1757         1.0124         -0.1419
 C         1.7328         -0.2811         0.4445
 C         3.2404         -0.3257         0.3166
 C         3.7284         -1.5953         0.8979
 O         2.9228         -2.4427         1.3983
 O         5.0726         -1.9039         0.9175
 C         -0.2821         1.0638         0.1419
 O         -0.8188         1.9069         0.9021
 N         -1.1058         0.0934         -0.4929
 C         -2.5311         0.0602         -0.2818
 C         -3.3035         0.2921         -1.5633
 S         -2.8123         1.9393         -2.1771
 C         -2.9553         -1.212         0.3651
 O         -2.1542         -2.1276         0.6786
 O         -4.3056         -1.3867         0.6317
 H         1.5415         3.0277         0.2817
 H         1.7592         1.9388         1.6292
 H         1.425         1.073         -1.1991
 H         1.2854         -1.1112         -0.1433
 H         1.4291         -0.4034         1.5015
 H         3.4965         -0.265         -0.7698
 H         3.644         0.55         0.8459
 H         5.5006         -2.4368         1.6692
 H         -0.6855         -0.6369         -1.1439
 H         -2.795         0.8762         0.4114
 H         -3.0677         -0.4878         -2.3023
 H         -4.3734         0.3044         -1.3438
 H         -3.9321         2.7198         -2.4963
 H         -4.6164         -2.3351         0.8697
