  33

 N         -2.3546         1.8107         -0.1593
 C         -1.571         0.8355         0.4622
 C         -2.0641         -0.6081         0.3414
 C         -2.2509         -1.1394         -1.0172
 C         -3.2212         -0.3682         -1.8216
 O         -4.4605         -0.5852         -1.8001
 O         -2.8102         0.6549         -2.6677
 C         -0.1089         0.8973         0.4809
 O         0.5449         1.4442         1.4429
 N         0.5843         0.3142         -0.5964
 C         2.0965         0.2582         -0.6124
 C         2.5578         0.285         0.8135
 C         3.3503         1.2754         1.3067
 N         3.6425         1.0068         2.6149
 C         2.997         -0.1644         2.887
 N         2.3543         -0.5852         1.7837
 C         2.376         -1.0437         -1.2526
 O         2.727         -1.1526         -2.495
 O         2.2718         -2.2882         -0.5785
 H         -3.3712         1.5078         0.0103
 H         -2.3158         2.7265         0.3406
 H         -1.8369         1.0141         1.6119
 H         -2.9364         -0.7863         0.9764
 H         -1.2042         -1.2033         0.8015
 H         -1.3909         -1.4732         -1.602
 H         -2.7979         -2.1479         -0.8509
 H         -3.4545         1.3495         -3.0393
 H         0.0864         -0.0219         -1.4188
 H         2.4816         1.1405         -1.0706
 H         3.7302         2.1657         0.7927
 H         2.9992         -0.6928         3.8382
 H         1.7876         -1.4738         1.7736
 H         1.5618         -2.9521         -0.9683
