  32

 N         3.7414         2.3481         -0.9746
 C         3.2441         1.0521         -0.5794
 C         3.9046         0.6634         0.7258
 C         1.7849         1.1409         -0.395
 O         1.166         2.2293         -0.5778
 N         1.0331         0.0246         -0.0115
 C         -0.4464         0.09         0.1813
 C         -0.989         -0.9157         -0.7465
 C         -2.4167         -1.1714         -0.8705
 C         -3.2913         -0.0137         -1.2595
 C         -3.0669         -1.9465         0.2331
 C         -0.6248         -0.1671         1.6136
 O         0.3153         -0.4733         2.3905
 O         -1.8824         -0.0729         2.1782
 H         2.9982         2.9658         -1.3363
 H         4.3241         2.8048         -0.2376
 H         3.5608         0.3182         -1.3343
 H         4.9256         1.0794         0.7337
 H         3.8761         -0.4217         0.8467
 H         3.3367         1.1177         1.5488
 H         1.5024         -0.8923         0.1499
 H         -0.7805         1.1299         -0.0259
 H         -0.5131         -0.709         -1.7614
 H         -0.4943         -1.9041         -0.4659
 H         -2.5169         -1.8824         -1.7871
 H         -3.0613         0.4263         -2.2342
 H         -3.3621         0.7552         -0.4481
 H         -4.3394         -0.4234         -1.3406
 H         -3.6968         -2.7905         -0.1603
 H         -3.8138         -1.3345         0.8183
 H         -2.2977         -2.3849         0.8818
 H         -2.1199         -0.6422         2.9885
