  34

 N         1.6876         -0.5911         -1.147
 C         1.5846         -0.4692         0.2574
 C         2.188         0.7355         0.8956
 C         3.6581         0.9196         0.7074
 C         4.0066         1.1155         -0.7073
 O         3.1919         1.425         -1.6032
 N         5.4079         0.9282         -1.0339
 C         0.1796         -0.5699         0.7502
 O         -0.0172         -0.4523         1.9925
 N         -0.9472         -0.7866         -0.0647
 C         -2.3011         -0.8785         0.4535
 C         -3.1784         0.1432         -0.144
 C         -4.4421         -0.0631         -0.6284
 N         -4.9043         1.1192         -1.0869
 C         -3.9625         2.0618         -0.9026
 N         -2.899         1.4408         -0.3172
 C         -2.7992         -2.2473         0.1715
 O         -2.0912         -3.1073         -0.4348
 O         -4.0665         -2.6556         0.5584
 H         1.983         -1.5289         -1.4597
 H         0.9601         -0.1535         -1.7167
 H         2.0867         -1.3955         0.6974
 H         1.934         0.6709         1.9907
 H         1.6082         1.6214         0.5411
 H         4.2328         0.0705         1.1503
 H         3.9183         1.8793         1.2419
 H         6.0018         1.7619         -1.2226
 H         5.7293         -0.0596         -1.0569
 H         -0.8182         -0.8888         -1.0911
 H         -2.3264         -0.7553         1.5566
 H         -5.0434         -0.9551         -0.6816
 H         -4.0299         3.1076         -1.165
 H         -2.0352         1.9596         -0.0708
 H         -4.4968         -3.4024         0.0454
