  39

 N         1.8586         0.1922         1.1896
 C         1.9216         0.8834         -0.0858
 C         2.6036         0.0494         -1.1418
 C         4.0101         -0.329         -0.821
 C         4.9028         0.8299         -0.6559
 O         4.4828         1.9867         -0.8699
 N         6.253         0.676         -0.2546
 C         0.5146         1.0761         -0.5729
 O         0.4018         1.6706         -1.6852
 N         -0.6001         0.6297         0.1513
 C         -1.9317         0.8477         -0.376
 C         -2.5865         -0.4529         -0.6935
 C         -2.7537         -1.4118         0.4303
 C         -3.4315         -2.6539         -0.1821
 C         -3.6603         -0.8967         1.5158
 C         -2.6863         1.738         0.5274
 O         -2.1705         2.1953         1.5794
 O         -3.993         2.0992         0.2399
 H         1.8046         -0.8479         1.0561
 H         2.6549         0.4663         1.7987
 H         2.4022         1.8613         0.0837
 H         2.6186         0.6876         -2.0661
 H         1.9495         -0.83         -1.3158
 H         4.3583         -1.0094         -1.6397
 H         4.066         -0.9283         0.1289
 H         6.6525         -0.2934         -0.1851
 H         6.8653         1.4708         -0.0266
 H         -0.4458         0.1371         1.0785
 H         -1.7726         1.3932         -1.3723
 H         -1.976         -0.9838         -1.4802
 H         -3.5946         -0.3256         -1.163
 H         -1.803         -1.7627         0.8299
 H         -4.0845         -2.3304         -1.0133
 H         -2.6535         -3.3184         -0.5628
 H         -4.0541         -3.1259         0.6019
 H         -4.5628         -0.4068         1.1044
 H         -3.1562         -0.2357         2.2427
 H         -4.0566         -1.745         2.1447
 H         -4.3471         2.997         0.5771
