  31

 N         1.3607         -1.0088         1.9987
 C         0.9642         -0.3146         0.8196
 C         1.033         -1.0702         -0.4585
 C         2.3597         -1.5892         -0.8715
 C         2.9903         -2.5724         0.0164
 O         2.3576         -3.1305         0.9336
 N         4.355         -2.9283         -0.141
 C         -0.4495         0.1954         0.9507
 O         -1.1572         -0.053         1.9604
 N         -1.0036         0.98         -0.0918
 C         -2.3792         1.4627         0.0585
 C         -2.3982         2.9841         0.0806
 O         -1.6374         3.4595         1.1445
 C         -3.2417         0.9523         -1.0252
 O         -2.8099         0.2035         -1.9373
 O         -4.5818         1.2994         -1.0573
 H         0.5893         -0.9248         2.7175
 H         2.2077         -0.6061         2.4546
 H         1.6183         0.6071         0.7567
 H         0.6631         -0.3681         -1.263
 H         0.2589         -1.896         -0.4759
 H         3.0702         -0.7435         -1.0303
 H         2.2626         -2.0587         -1.9002
 H         4.7174         -3.8749         0.1685
 H         5.0648         -2.2982         -0.5588
 H         -0.497         1.2452         -0.9688
 H         -2.8024         1.1246         1.0224
 H         -1.9145         3.3684         -0.8446
 H         -3.4535         3.3076         0.1693
 H         -2.2549         3.5448         1.9286
 H         -5.2918         0.7028         -1.4214
