  21

 N         2.5456         -0.6734         1.4268
 C         2.6565         -0.2918         0.0255
 C         1.3025         0.0749         -0.468
 O         1.1684         0.4429         -1.6784
 N         0.1544         0.026         0.3738
 C         -1.133         0.3985         -0.179
 C         -2.0799         -0.7774         -0.0972
 S         -1.4627         -2.1931         -1.0135
 C         -1.7211         1.5372         0.5793
 O         -1.0819         2.0053         1.5353
 O         -2.9361         2.0871         0.2646
 H         3.4574         -0.4817         1.9183
 H         2.2189         -1.6408         1.5483
 H         2.9949         -1.1578         -0.5812
 H         3.3462         0.5693         -0.0873
 H         0.2466         -0.2711         1.3606
 H         -1.0473         0.6881         -1.2434
 H         -2.23         -1.0496         0.9669
 H         -3.071         -0.4302         -0.4696
 H         -0.2104         -1.9448         -1.5641
 H         -3.1177         3.0825         0.3759
