  40

 N         -3.6142         -1.6298         -1.1498
 C         -3.7125         -0.1758         -1.0897
 C         -4.4013         0.2233         0.1613
 C         -4.0848         1.1893         1.0845
 N         -5.0077         1.2045         2.071
 C         -5.9122         0.2451         1.7727
 N         -5.5554         -0.3467         0.6302
 C         -2.3727         0.4495         -1.1215
 O         -2.3116         1.7054         -1.043
 N         -1.1681         -0.2544         -1.234
 C         0.163         0.467         -1.2589
 C         0.918         -0.1747         -0.1829
 C         2.2472         0.1663         0.2531
 C         3.434         0.1158         -0.6137
 N         4.6652         0.449         0.1168
 C         5.2148         -0.4024         1.1228
 N         4.8727         -1.6246         1.1671
 N         6.1469         0.0845         2.0859
 C         0.619         0.3612         -2.6348
 O         -0.0712         -0.3908         -3.4223
 O         1.6903         0.9469         -3.26
 H         -3.4565         -1.9673         -0.1618
 H         -4.5293         -1.9837         -1.5142
 H         -4.2997         0.196         -1.9611
 H         -3.2356         1.8464         1.0512
 H         -6.7797         0.0281         2.3983
 H         -6.0407         -1.1151         0.1408
 H         -1.1771         -1.2839         -1.3016
 H         -0.0629         1.5266         -1.0548
 H         0.2343         -0.0932         0.7429
 H         0.8373         -1.3231         -0.3395
 H         2.28         1.1974         0.7594
 H         2.4951         -0.5124         1.1487
 H         3.4075         0.9097         -1.41
 H         3.6332         -0.8915         -1.0477
 H         5.1489         1.3232         -0.0979
 H         5.2561         -2.2674         1.8872
 H         6.2577         -0.4057         2.9811
 H         6.7108         0.9354         1.875
 H         1.5613         1.2719         -4.2285
