  31

 N         -2.3255         1.6092         -1.5242
 C         -1.7153         1.038         -0.3067
 C         -2.6699         0.126         0.3232
 C         -2.5361         -1.1204         0.8548
 N         -3.7346         -1.5116         1.3042
 C         -4.6076         -0.5303         1.0604
 N         -3.9714         0.4705         0.4642
 C         -0.4363         0.4412         -0.7309
 O         -0.0979         0.4394         -1.9615
 N         0.5162         -0.1658         0.141
 C         1.759         -0.7305         -0.2814
 C         2.974         -0.1674         0.3775
 C         3.0805         1.2662         0.1207
 O         2.23         1.8783         -0.5673
 N         4.1676         2.0594         0.6422
 C         1.7857         -2.2258         -0.2805
 O         0.7382         -2.8094         0.0822
 O         2.873         -2.9626         -0.6481
 H         -2.4215         0.7858         -2.1746
 H         -3.2068         2.0917         -1.3255
 H         -1.5785         1.8929         0.3908
 H         -1.5917         -1.6808         0.8928
 H         -5.6551         -0.5976         1.3293
 H         -4.4383         1.379         0.1608
 H         0.2309         -0.1674         1.1601
 H         1.8534         -0.4862         -1.3837
 H         3.0668         -0.4391         1.4471
 H         3.8586         -0.6656         -0.1191
 H         5.105         1.6113         0.7352
 H         4.0496         3.0397         0.9215
 H         2.698         -3.8681         -1.1045
