  41

 N         -1.384         1.8378         1.0578
 C         -1.796         0.5135         0.7008
 C         -2.4034         0.5208         -0.6851
 C         -2.8432         -0.8589         -1.0814
 C         -3.5684         1.4832         -0.7742
 C         -4.6768         1.1552         0.1722
 C         -0.6321         -0.3972         0.6795
 O         -0.7868         -1.6291         0.3826
 N         0.6582         0.1111         0.9922
 C         1.7898         -0.7937         0.9672
 C         2.7187         -0.2938         -0.1425
 C         3.9203         -1.1828         -0.232
 C         1.9133         -0.343         -1.4216
 C         2.6887         0.1196         -2.6125
 C         2.4699         -0.8068         2.2715
 O         2.0382         -0.092         3.1999
 O         3.5881         -1.6114         2.4698
 H         -0.6976         2.2058         0.3749
 H         -1.037         1.8636         2.0336
 H         -2.5175         0.1648         1.4533
 H         -1.6499         0.8583         -1.4235
 H         -3.7685         -0.8408         -1.6993
 H         -2.0363         -1.4087         -1.6435
 H         -3.057         -1.4874         -0.1897
 H         -3.9657         1.4125         -1.8077
 H         -3.2026         2.5218         -0.6465
 H         -4.5617         0.1438         0.593
 H         -4.6266         1.8781         1.0331
 H         -5.6816         1.3049         -0.2815
 H         0.7957         1.1142         1.2357
 H         1.4714         -1.8128         0.6921
 H         3.0023         0.738         0.1441
 H         4.4089         -1.1686         -1.2274
 H         3.649         -2.2266         0.0619
 H         4.6716         -0.8492         0.5422
 H         1.0335         0.3277         -1.2771
 H         1.5462         -1.3736         -1.5484
 H         2.2157         1.0301         -3.0723
 H         2.7773         -0.6433         -3.4012
 H         3.7279         0.4153         -2.322
 H         3.8081         -1.9007         3.4141
