  39

 N         -0.0392         1.2488         -0.6589
 C         0.1572         -0.147         -0.5256
 C         1.1143         -0.5549         0.5546
 C         2.4715         0.0435         0.2809
 C         3.4888         -0.3321         1.3341
 N         4.7395         0.3106         0.9353
 C         5.4594         -0.0814         -0.2087
 N         5.1437         -1.25         -0.7103
 N         6.4715         0.6836         -0.8332
 C         -1.1733         -0.8019         -0.3763
 O         -1.2683         -2.0557         -0.2252
 N         -2.3885         -0.0659         -0.3959
 C         -3.669         -0.7234         -0.249
 C         -4.4019         -0.3204         1.0068
 C         -4.6874         1.1262         1.0608
 O         -4.3537         1.9008         0.1489
 O         -5.3558         1.6509         2.1728
 C         -4.5141         -0.4757         -1.4431
 O         -4.0883         0.2134         -2.3918
 O         -5.7832         -1.0057         -1.5193
 H         0.0217         1.6436         -1.6025
 H         0.3899         1.8331         0.0858
 H         0.5873         -0.5508         -1.4854
 H         0.7705         -0.2402         1.5555
 H         1.2527         -1.6555         0.5722
 H         2.8654         -0.3         -0.6954
 H         2.3279         1.1541         0.2859
 H         3.7046         -1.4281         1.2959
 H         3.1972         -0.066         2.3484
 H         5.1164         1.0884         1.5156
 H         5.6036         -1.6407         -1.546
 H         6.4117         0.8422         -1.8547
 H         7.2679         1.0905         -0.3143
 H         -2.3247         0.9832         -0.5228
 H         -3.4504         -1.8222         -0.1332
 H         -5.3507         -0.9001         1.0106
 H         -3.7999         -0.6537         1.8757
 H         -5.7881         2.5494         2.0646
 H         -6.1262         -1.291         -2.4384
