  39

 N         -1.1473         0.5467         1.7153
 C         -1.123         0.5194         0.355
 C         -2.1614         1.3689         -0.2689
 C         -3.4987         0.7518         -0.1291
 C         -4.6618         1.3542         -0.6075
 C         -5.945         0.8894         -0.5003
 C         -6.0767         -0.39         0.0811
 C         -4.9318         -1.0687         0.5286
 C         -3.682         -0.4678         0.4859
 C         0.2118         0.5848         -0.2572
 O         0.4965         1.2215         -1.2709
 N         1.2267         -0.195         0.4034
 C         2.4655         -0.4525         -0.3897
 C         3.6143         -0.1464         0.4955
 C         4.9416         -0.398         -0.0401
 C         5.4655         0.7638         -0.8915
 O         4.7059         1.5489         -1.4084
 O         6.9127         0.7906         -0.9207
 C         2.289         -2.0561         -0.29
 O         3.3419         -2.5483         0.5015
 O         1.4395         -2.9142         -0.6874
 H         -0.7311         1.4897         1.9858
 H         -0.6977         -0.2443         2.2435
 H         -1.4655         -0.5985         -0.0279
 H         -2.2282         2.3991         0.2809
 H         -1.9689         1.6458         -1.3077
 H         -4.5497         2.2474         -1.2162
 H         -6.8661         1.4451         -0.5951
 H         -7.0516         -0.8778         0.1657
 H         -4.9919         -2.0286         0.9814
 H         -2.918         -0.8033         1.2297
 H         1.2239         -0.3857         1.4039
 H         2.3943         -0.1775         -1.354
 H         3.461         -0.5957         1.5297
 H         3.4837         0.9558         0.6943
 H         5.6943         -0.833         0.5949
 H         4.8023         -1.2047         -0.9258
 H         7.3476         1.6365         -1.2248
 H         1.1784         -3.7733         -0.1204
