  37

 N         1.3538         -1.5209         -2.0894
 C         0.4031         -1.3235         -0.9867
 C         1.1761         -1.491         0.3388
 C         2.2556         -0.5231         0.4622
 C         3.5094         -0.8094         -0.0014
 C         4.4984         0.1395         0.1385
 C         4.2541         1.3587         0.7297
 C         2.9929         1.6645         1.2038
 C         2.0207         0.6922         1.0492
 C         -0.2268         0.0069         -1.0676
 O         0.4126         0.8279         -1.8252
 N         -1.4204         0.416         -0.4064
 C         -2.3192         -0.2827         0.4454
 C         -3.3803         0.6779         0.9112
 C         -2.7749         2.0172         0.6685
 C         -1.9094         1.7785         -0.5475
 C         -3.0508         -1.3808         -0.2407
 O         -2.907         -1.5945         -1.4509
 O         -3.9025         -2.1671         0.5016
 H         1.1762         -0.8175         -2.8568
 H         1.2826         -2.4577         -2.5075
 H         -0.287         -2.1787         -1.0191
 H         0.4429         -1.3476         1.1439
 H         1.5346         -2.545         0.3476
 H         3.7867         -1.7368         -0.4759
 H         5.5181         -0.0541         -0.2217
 H         5.044         2.1085         0.838
 H         2.7977         2.6221         1.669
 H         1.0276         0.9527         1.431
 H         -1.7654         -0.688         1.3281
 H         -4.2988         0.5698         0.282
 H         -3.6235         0.5244         1.9936
 H         -2.173         2.3073         1.5584
 H         -3.5019         2.814         0.4855
 H         -1.029         2.4462         -0.4474
 H         -2.4735         1.9357         -1.4713
 H         -4.4436         -2.9417         0.0895
