  33

 N         2.6915         -1.0046         -1.8617
 C         2.2652         -0.5492         -0.5529
 C         3.0665         0.6703         -0.2281
 C         4.3323         0.4769         -1.0556
 C         4.0912         -0.7119         -1.9402
 C         0.8088         -0.3156         -0.5943
 O         0.1286         -0.513         -1.6574
 N         0.0558         0.1395         0.5225
 C         -1.3938         0.3638         0.454
 C         -1.9897         -0.5397         1.5035
 C         -3.4759         -0.4781         1.6145
 C         -4.1877         -0.8602         0.3772
 O         -3.6378         -1.2297         -0.6884
 O         -5.5767         -0.804         0.401
 C         -1.673         1.7955         0.7277
 O         -0.7096         2.5857         0.9769
 O         -2.9568         2.2853         0.7164
 H         2.4419         -1.9982         -1.9557
 H         2.5511         -1.3447         0.1657
 H         3.3539         0.713         0.8563
 H         2.5976         1.6192         -0.4819
 H         5.1882         0.2711         -0.38
 H         4.5134         1.3702         -1.6913
 H         4.6523         -1.6183         -1.6298
 H         4.3215         -0.4636         -3.0117
 H         0.5522         0.3197         1.4208
 H         -1.7914         0.1424         -0.531
 H         -1.665         -1.5942         1.3372
 H         -1.5911         -0.2882         2.5302
 H         -3.8088         0.529         1.9708
 H         -3.8149         -1.1803         2.4234
 H         -6.1533         -1.0132         -0.4024
 H         -3.1864         3.2252         0.9919
