  24

 N         -1.6666         -0.5297         1.5178
 C         -1.0197         -0.8481         0.2827
 C         -1.7091         -0.0869         -0.8171
 C         -2.4         1.0243         -0.0148
 C         -2.8593         0.231         1.2015
 C         0.4344         -0.6511         0.3148
 O         0.9426         -0.2374         1.387
 N         1.2987         -0.8965         -0.7815
 C         2.7125         -0.7021         -0.7419
 C         3.131         0.6707         -0.4456
 O         2.2763         1.5595         -0.2515
 O         4.4559         1.0404         -0.3681
 H         -1.0288         0.0744         2.0772
 H         -1.2065         -1.939         0.0752
 H         -2.5343         -0.6956         -1.2591
 H         -1.0466         0.3053         -1.5833
 H         -1.6931         1.7887         0.3161
 H         -3.2798         1.4157         -0.5371
 H         -3.6494         -0.4763         0.8956
 H         -3.157         0.8973         2.0314
 H         0.8405         -1.2384         -1.653
 H         3.1544         -1.031         -1.7192
 H         3.2028         -1.3946         0.0058
 H         4.8012         1.7196         0.3108
