  41

 N         4.4419         -0.0933         1.1668
 C         3.1619         0.3585         0.7071
 C         3.3704         1.359         -0.3991
 C         4.7446         1.9276         -0.0188
 C         5.4394         0.6103         0.3617
 C         2.2882         -0.7326         0.242
 O         2.6714         -1.9195         0.3162
 N         0.9982         -0.4929         -0.3019
 C         0.1461         -1.5671         -0.7513
 C         -1.1989         -1.6178         -0.1277
 C         -2.0537         -0.4375         -0.3372
 C         -3.2449         -0.2483         0.3745
 C         -3.9079         -0.9606         1.3437
 C         -5.1055         -0.5133         1.8786
 C         -5.6509         0.6696         1.4359
 C         -5.0042         1.3944         0.4698
 C         -3.8031         0.9321         -0.0574
 N         -2.9888         1.4277         -0.9819
 C         -1.9354         0.6418         -1.1778
 C         0.1041         -1.6476         -2.2377
 O         0.7642         -0.8812         -2.9669
 O         -0.6963         -2.6075         -2.8277
 H         4.6464         0.1947         2.1719
 H         2.6581         0.8817         1.5809
 H         3.4594         0.8411         -1.356
 H         2.5928         2.1522         -0.391
 H         4.6934         2.5974         0.8398
 H         5.1829         2.3892         -0.9009
 H         5.5821         0.086         -0.598
 H         6.3894         0.7744         0.8729
 H         0.6871         0.495         -0.364
 H         0.6735         -2.5274         -0.4485
 H         -1.739         -2.4922         -0.575
 H         -1.0871         -1.8781         0.9464
 H         -3.4753         -1.8801         1.6838
 H         -5.6457         -1.0639         2.6467
 H         -6.5962         1.0302         1.8519
 H         -5.4267         2.3238         0.1179
 H         -3.1793         2.3372         -1.4842
 H         -1.104         0.7884         -1.876
 H         -0.8526         -2.6512         -3.8478
