  25

 N         -2.1833         -1.5805         -0.1603
 C         -2.3078         -0.1709         -0.3762
 C         -3.032         0.5029         0.7866
 O         -2.3418         0.3138         1.9777
 C         -0.9629         0.4625         -0.4879
 O         -0.8473         1.6953         -0.679
 N         0.2093         -0.3089         -0.3813
 C         1.553         0.2289         -0.4782
 C         2.1902         0.0256         0.8955
 S         3.871         0.6383         0.9604
 C         2.3367         -0.3857         -1.5468
 O         1.8238         -1.2813         -2.2622
 O         3.631         0.0076         -1.7763
 H         -1.8182         -1.8223         0.7681
 H         -3.0454         -2.0903         -0.4318
 H         -2.8427         0.0134         -1.3182
 H         -4.0561         0.0572         0.8854
 H         -3.1905         1.5778         0.5807
 H         -2.5106         1.0902         2.599
 H         0.1228         -1.3283         -0.2234
 H         1.4215         1.3351         -0.6473
 H         1.5435         0.5175         1.6373
 H         2.2062         -1.0737         1.0798
 H         4.0322         1.9064         0.4196
 H         4.1977         -0.3308         -2.5565
