  34

 N         3.9937         1.4253         0.9344
 C         2.7438         1.2932         0.2078
 C         3.086         1.0834         -1.2481
 O         3.8062         2.2059         -1.6607
 C         2.015         0.1364         0.7905
 O         2.4775         -0.5413         1.7367
 N         0.7319         -0.2647         0.2918
 C         0.0063         -1.3827         0.8405
 C         -1.2948         -0.8993         1.4292
 C         -2.173         -0.245         0.4561
 C         -2.077         1.1144         0.2544
 C         -2.9218         1.7226         -0.6772
 C         -3.846         1.0146         -1.4005
 C         -3.9374         -0.3399         -1.1955
 C         -3.0984         -0.9636         -0.266
 C         -0.2179         -2.447         -0.1792
 O         0.191         -2.3462         -1.3642
 O         -0.9019         -3.6         0.1738
 H         3.7418         1.6935         1.9286
 H         4.39         0.4526         1.0086
 H         2.1411         2.2171         0.3495
 H         3.7388         0.1932         -1.3191
 H         2.1811         1.0125         -1.885
 H         4.5948         2.3697         -1.0868
 H         0.3491         0.2972         -0.4924
 H         0.5787         -1.8522         1.6674
 H         -1.029         -0.2215         2.2765
 H         -1.7738         -1.8033         1.9028
 H         -1.3754         1.7512         0.782
 H         -2.851         2.788         -0.8395
 H         -4.5102         1.4993         -2.1342
 H         -4.6674         -0.8877         -1.7692
 H         -3.209         -2.0281         -0.1417
 H         -0.8827         -4.4474         -0.4059
