  30

 N         2.9663         1.9803         1.324
 C         2.4379         1.28         0.1657
 C         3.4248         0.1733         -0.2393
 O         2.9336         -0.4968         -1.3438
 C         1.1612         0.6388         0.5546
 O         0.8153         0.7354         1.7661
 N         0.337         -0.0621         -0.3723
 C         -0.8733         -0.6381         0.1335
 C         -2.1164         -0.1004         -0.5176
 C         -3.2806         -0.8043         0.1301
 C         -2.2799         1.3741         -0.3441
 C         -0.8018         -2.0951         -0.0932
 O         0.1938         -2.6252         -0.6582
 O         -1.8433         -2.9061         0.3194
 H         2.2126         2.6566         1.6222
 H         3.8038         2.5315         1.0437
 H         2.2886         1.9403         -0.6999
 H         4.4327         0.5853         -0.4165
 H         3.5223         -0.5451         0.6152
 H         2.7631         -1.4615         -1.1497
 H         0.6545         -0.1142         -1.355
 H         -0.9693         -0.4316         1.2119
 H         -2.1054         -0.3047         -1.6139
 H         -3.6362         -1.6723         -0.4619
 H         -2.9871         -1.0608         1.1683
 H         -4.1067         -0.0352         0.2288
 H         -3.0592         1.7599         -1.0171
 H         -1.3528         1.94         -0.5755
 H         -2.6077         1.6174         0.6997
 H         -1.9278         -3.8594         -0.0564
