  31

 N         3.0181         -1.6958         0.7193
 C         2.0016         -0.6967         0.9219
 C         2.52         0.7         0.6527
 O         3.5902         1.0124         1.5032
 C         2.9734         0.8177         -0.7804
 C         0.8836         -0.9332         -0.037
 O         0.9167         -1.8747         -0.8478
 N         -0.2348         -0.0802         -0.0323
 C         -1.368         -0.2157         -0.9122
 C         -2.5714         -0.3533         -0.0336
 C         -2.7772         0.4559         1.0612
 N         -3.9416         0.0569         1.6097
 C         -4.4594         -0.9603         0.9011
 N         -3.5907         -1.2004         -0.1181
 C         -1.5294         1.0731         -1.6309
 O         -0.7415         2.0216         -1.4067
 O         -2.5344         1.2869         -2.5628
 H         3.9336         -1.3036         1.0408
 H         2.7668         -2.5207         1.3197
 H         1.6671         -0.7379         1.9668
 H         1.7043         1.4193         0.861
 H         4.252         1.5355         0.9879
 H         2.8311         1.8596         -1.1147
 H         4.0415         0.4956         -0.8098
 H         2.3449         0.1291         -1.3907
 H         -0.2507         0.7029         0.6499
 H         -1.2743         -1.0712         -1.606
 H         -2.1195         1.2645         1.4129
 H         -5.3822         -1.4489         1.1403
 H         -3.7211         -1.9336         -0.8375
 H         -2.9488         2.1954         -2.6279
