  38

 N         -0.2435         -0.0739         2.4361
 C         -0.0305         1.1792         1.8003
 C         1.4247         1.592         1.6793
 C         2.2578         0.6659         0.9146
 C         2.3558         0.7962         -0.472
 C         3.1346         -0.0446         -1.2371
 C         3.8542         -1.0594         -0.6434
 O         4.6404         -1.9063         -1.427
 C         3.7636         -1.1953         0.7243
 C         2.9751         -0.3455         1.5079
 C         -0.742         1.3833         0.529
 O         -0.6439         2.4822         -0.0697
 N         -1.5633         0.3736         -0.081
 C         -2.3045         0.5219         -1.3138
 C         -2.2964         -0.8504         -1.9114
 C         -2.5144         -1.6987         -0.6628
 C         -1.7852         -0.9507         0.4291
 C         -3.7052         0.8771         -0.9598
 O         -4.5488         1.0598         -1.8628
 O         -4.1276         1.018         0.3541
 H         -0.606         -0.0232         3.4118
 H         0.5997         -0.6489         2.401
 H         -0.4687         1.9655         2.5026
 H         1.4103         2.5935         1.1734
 H         1.8535         1.7759         2.7077
 H         1.8005         1.5851         -0.9618
 H         3.2126         0.0545         -2.3159
 H         5.1666         -2.6486         -0.9917
 H         4.3261         -1.9903         1.198
 H         2.9509         -0.4991         2.5704
 H         -1.8644         1.2909         -1.9779
 H         -3.19         -0.9853         -2.5757
 H         -1.3716         -1.113         -2.4431
 H         -3.5973         -1.7973         -0.4507
 H         -2.0336         -2.6739         -0.8318
 H         -2.428         -0.9244         1.3449
 H         -0.8196         -1.4627         0.6663
 H         -4.8422         1.6771         0.6371
