  33

 N         1.6769         1.629         -0.6261
 C         1.8538         0.2495         -0.9515
 C         2.8394         -0.4632         -0.0675
 C         4.2013         0.1586         -0.1465
 C         2.4225         -0.5403         1.361
 C         0.5534         -0.4214         -0.9725
 O         0.4373         -1.6579         -1.2369
 N         -0.648         0.286         -0.6958
 C         -1.945         -0.4068         -0.7221
 C         -2.6173         -0.3501         0.5747
 C         -3.242         -1.4         1.2092
 N         -3.7417         -0.9419         2.3883
 C         -3.4197         0.3616         2.4554
 N         -2.737         0.7277         1.3577
 C         -2.7745         0.17         -1.8187
 O         -2.3248         1.0894         -2.5287
 O         -4.0394         -0.3174         -2.0436
 H         2.5041         2.2233         -0.8213
 H         1.2335         1.7967         0.29
 H         2.2781         0.2092         -1.9926
 H         2.9256         -1.5094         -0.4697
 H         4.373         0.9017         0.6855
 H         4.4089         0.6447         -1.1177
 H         4.9497         -0.644         0.0234
 H         3.347         -0.6696         1.9981
 H         1.9268         0.3612         1.7242
 H         1.8246         -1.4728         1.5774
 H         -0.6231         1.3127         -0.4692
 H         -1.7518         -1.4682         -0.9781
 H         -3.334         -2.4067         0.862
 H         -3.6753         1.0217         3.2787
 H         -2.3544         1.668         1.123
 H         -4.5277         -0.1416         -2.9229
