  30

 N         1.9053         -2.0969         -0.0451
 C         2.096         -0.98         0.8347
 C         3.1497         -0.0232         0.3897
 C         2.8805         0.5893         -0.928
 O         1.8644         0.3266         -1.578
 N         3.8352         1.5055         -1.4411
 C         0.8317         -0.2283         1.0552
 O         0.7902         0.8069         1.7882
 N         -0.355         -0.6583         0.4469
 C         -1.6261         0.0644         0.6442
 C         -2.0111         0.5187         -0.7389
 C         -3.2197         1.3044         -0.8643
 O         -3.8772         1.6968         0.1138
 O         -3.6895         1.651         -2.1396
 C         -2.6553         -0.8832         1.124
 O         -2.437         -2.1134         1.2835
 O         -3.9183         -0.4432         1.4223
 H         1.44         -1.8583         -0.9431
 H         1.3262         -2.8221         0.4316
 H         2.4316         -1.425         1.8185
 H         3.1755         0.808         1.138
 H         4.1539         -0.4962         0.3453
 H         3.6528         2.5191         -1.2869
 H         4.6832         1.2136         -1.9489
 H         -0.3984         -1.4992         -0.1663
 H         -1.5073         0.9338         1.2971
 H         -2.1176         -0.4457         -1.3314
 H         -1.1331         1.0318         -1.205
 H         -4.6828         1.8966         -2.2207
 H         -4.5878         -0.8932         2.0132
