  33

 N         -2.9507         1.9466         -0.7929
 C         -2.335         1.1979         0.2887
 C         -3.2215         0.0177         0.6193
 C         -3.422         -0.8966         -0.5001
 O         -2.4687         -1.6026         -0.9046
 N         -4.6731         -1.019         -1.1572
 C         -0.9799         0.7882         -0.1217
 O         -0.5344         1.1029         -1.2743
 N         -0.082         0.0429         0.6802
 C         1.2655         -0.3466         0.2332
 C         2.1816         0.3088         1.2334
 C         3.6276         0.0982         1.0479
 C         4.0918         0.6505         -0.2351
 O         3.3086         1.2713         -0.9713
 O         5.4224         0.4733         -0.625
 C         1.4056         -1.8255         0.2394
 O         0.4429         -2.5427         0.6023
 O         2.6143         -2.3697         -0.1629
 H         -2.6167         2.9195         -0.8575
 H         -2.8484         1.436         -1.6982
 H         -2.3481         1.8608         1.1758
 H         -2.8127         -0.5669         1.4743
 H         -4.1988         0.4173         0.9694
 H         -4.8859         -1.785         -1.8353
 H         -5.4516         -0.3254         -0.9812
 H         -0.3707         -0.2497         1.6273
 H         1.449         0.0282         -0.7874
 H         1.9268         1.4109         1.1767
 H         1.8317         0.0314         2.2695
 H         3.9568         -0.9578         1.1117
 H         4.1481         0.6492         1.8891
 H         5.8814         1.1717         -1.1868
 H         2.6462         -3.3359         -0.4626
