  24

 N         -2.1872         0.1003         1.7009
 C         -2.3943         -0.2557         0.3124
 C         -3.2588         0.797         -0.3838
 C         -1.0786         -0.3799         -0.3504
 O         -1.0648         -0.6869         -1.5712
 N         0.162         -0.1698         0.3238
 C         1.4388         -0.298         -0.3501
 C         2.2462         0.9813         -0.2563
 S         3.8296         0.8649         -1.0758
 C         2.193         -1.3928         0.3089
 O         1.746         -2.0577         1.281
 O         3.4579         -1.7042         -0.1676
 H         -1.9482         1.0894         1.8498
 H         -3.0053         -0.2347         2.2533
 H         -2.939         -1.2034         0.249
 H         -3.8718         1.3468         0.3654
 H         -2.5517         1.5083         -0.8703
 H         -3.8643         0.3554         -1.1978
 H         0.1128         0.0854         1.3435
 H         1.2242         -0.5706         -1.4042
 H         1.6107         1.7902         -0.6727
 H         2.4178         1.1908         0.8173
 H         3.8584         1.4422         -2.3444
 H         3.8666         -2.5986         0.0829
