  28

 N         2.2427         1.9227         -0.7236
 C         1.5028         0.6833         -0.6299
 C         2.0926         -0.2427         0.4089
 C         3.4919         -0.5379         0.0119
 O         3.9956         -0.0544         -1.0187
 N         4.2819         -1.3915         0.8219
 C         0.0886         1.0104         -0.355
 O         -0.2622         2.2019         -0.2473
 N         -0.9257         0.0147         -0.2015
 C         -2.3093         0.358         0.0683
 C         -3.1036         -0.1161         -1.1557
 O         -2.9092         -1.484         -1.2572
 C         -2.851         -0.307         1.2457
 O         -2.1502         -1.0888         1.9239
 O         -4.1564         -0.0812         1.6321
 H         1.7607         2.6257         -0.1201
 H         2.1527         2.2772         -1.7012
 H         1.6304         0.1719         -1.6203
 H         2.0312         0.2253         1.3999
 H         1.537         -1.2022         0.4149
 H         4.1929         -1.2594         1.8597
 H         4.8949         -2.0883         0.3692
 H         -0.608         -0.9752         -0.2959
 H         -2.3924         1.4593         0.1231
 H         -4.1658         0.1661         -1.0759
 H         -2.5986         0.352         -2.0292
 H         -2.7781         -1.9319         -0.4068
 H         -4.6855         -0.7077         2.2329
