  26

 N         -1.1319         -1.945         -0.9138
 C         -1.6052         -0.5409         -0.7811
 C         -2.6918         -0.4855         0.2374
 C         -3.2837         0.8353         0.445
 O         -2.961         1.8147         -0.2555
 O         -4.2365         1.0745         1.4291
 C         -0.4225         0.3011         -0.4413
 O         -0.4764         1.5318         -0.3419
 N         0.8595         -0.2971         -0.2103
 C         2.0242         0.5133         0.1197
 C         2.5267         0.181         1.5187
 C         3.1318         0.248         -0.807
 O         2.9659         -0.6181         -1.7219
 O         4.3533         0.8894         -0.7428
 H         -0.6583         -1.9778         -1.8468
 H         -2.0282         -2.4838         -1.0555
 H         -2.0015         -0.2661         -1.7666
 H         -2.3773         -0.9038         1.2263
 H         -3.5423         -1.1719         -0.071
 H         -4.2572         1.9616         1.9208
 H         0.9045         -1.3324         -0.2911
 H         1.7582         1.5877         0.1295
 H         1.92         0.7675         2.2494
 H         2.4926         -0.8888         1.7508
 H         3.5886         0.5462         1.5494
 H         5.1487         0.6592         -1.3295
