  39

 N         -3.2571         0.3969         -1.6737
 C         -3.562         0.5282         -0.2813
 C         -4.6303         -0.4334         0.1315
 C         -5.8517         -0.1406         -0.6703
 O         -6.9265         -0.7922         -0.5415
 O         -5.8708         0.8905         -1.6249
 C         -2.3521         0.4476         0.5799
 O         -2.4727         0.5448         1.831
 N         -1.0514         0.2651         0.0672
 C         0.1438         0.1899         0.9843
 C         0.7508         -1.1249         0.6241
 C         1.9405         -1.6387         1.3011
 C         3.1624         -0.8091         1.1524
 N         3.4836         -0.6384         -0.2472
 C         4.6427         0.1409         -0.6024
 N         5.1212         0.9622         0.2565
 N         5.2083         -0.0342         -1.8942
 C         1.036         1.3075         0.6091
 O         1.1835         1.4993         -0.6474
 O         1.7055         2.1514         1.4423
 H         -2.9174         -0.5594         -1.9303
 H         -2.5182         1.1066         -1.8992
 H         -3.9664         1.5683         -0.1364
 H         -4.3014         -1.4768         -0.1427
 H         -4.8235         -0.4342         1.2101
 H         -6.6979         1.2665         -2.0234
 H         -0.9178         0.1818         -0.9551
 H         -0.1599         0.2911         2.0182
 H         0.9712         -1.1693         -0.4921
 H         -0.0437         -1.953         0.7073
 H         2.1147         -2.6868         0.9107
 H         1.672         -1.768         2.3974
 H         3.1799         0.1274         1.6999
 H         4.0483         -1.4417         1.5725
 H         2.9345         -1.0404         -1.024
 H         5.9472         1.5452         0.0589
 H         5.5224         0.7953         -2.4307
 H         5.3036         -0.9826         -2.291
 H         2.2487         2.9174         1.0701
