  23

 N         -1.1967         -1.6114         0.3905
 C         -1.1871         -0.7455         -0.7681
 C         -1.5536         0.6677         -0.3744
 C         -2.8457         0.778         0.3012
 O         -2.815         0.6662         1.5852
 O         -4.0774         0.99         -0.256
 C         0.3512         -0.6199         -1.1146
 O         0.7505         -0.5359         -2.2373
 N         1.1518         -0.6341         0.017
 C         2.5934         -0.5576         0.0588
 C         3.2471         0.6168         -0.48
 O         4.0869         0.5059         -1.3651
 O         2.9002         1.8694         0.0189
 H         -2.0212         -1.6067         0.9808
 H         -0.4677         -2.2905         0.5229
 H         -1.744         -1.1681         -1.5794
 H         -0.7377         1.13         0.1821
 H         -1.5903         1.204         -1.3832
 H         -4.7459         1.6619         0.1625
 H         0.6933         -0.5892         0.9835
 H         2.8388         -1.4607         -0.719
 H         3.063         -0.9595         0.9702
 H         3.3061         2.6894         -0.3926
