  36

 N         -0.9324         -0.9836         -1.5597
 C         -1.1821         0.37         -1.1859
 C         -2.1649         0.4586         -0.0408
 C         -3.4972         -0.149         -0.3591
 C         -3.4122         -1.5955         -0.7012
 C         -4.3945         0.0397         0.8364
 C         0.0576         1.081         -0.7546
 O         -0.0181         2.2782         -0.3785
 N         1.3423         0.468         -0.7473
 C         2.517         1.242         -0.3067
 C         3.1169         0.5821         0.9236
 C         3.5369         -0.8105         0.6037
 O         4.319         -1.0025         -0.3558
 N         3.0378         -1.8954         1.393
 C         3.4618         1.2577         -1.4436
 O         3.2258         0.7012         -2.5423
 O         4.6988         1.9105         -1.3513
 H         -0.568         -1.09         -2.5321
 H         -0.3197         -1.4886         -0.8726
 H         -1.6618         0.9067         -2.0527
 H         -2.3541         1.537         0.2197
 H         -1.7303         -0.0208         0.8552
 H         -3.9161         0.4071         -1.2267
 H         -4.3666         -2.123         -0.4866
 H         -3.1651         -1.7343         -1.78
 H         -2.6276         -2.0865         -0.0944
 H         -5.4431         -0.0656         0.4976
 H         -4.1944         -0.6941         1.6355
 H         -4.2433         1.0726         1.2345
 H         1.4492         -0.5048         -1.0474
 H         2.2392         2.2662         -0.0521
 H         2.3997         0.6183         1.7546
 H         4.0084         1.1898         1.2105
 H         3.5065         -2.187         2.2657
 H         2.1821         -2.402         1.0687
 H         5.0925         2.4464         -2.1187
