  34

 N         -3.1878         1.6606         -0.118
 C         -2.4751         0.4491         0.2123
 C         -3.1213         -0.6726         -0.5436
 C         -4.4324         -0.1443         -1.0134
 C         -4.5279         1.2666         -0.4874
 C         -1.0621         0.5507         -0.2506
 O         -0.6597         1.6103         -0.84
 N         -0.1076         -0.4693         -0.08
 C         1.2804         -0.3315         -0.5514
 C         2.2248         -0.4649         0.6121
 C         3.6356         -0.3071         0.1281
 S         4.822         -0.402         1.5142
 C         4.6054         1.0137         2.6237
 C         1.517         -1.3984         -1.5496
 O         0.5989         -2.2733         -1.7635
 O         2.6583         -1.563         -2.3098
 H         -3.1676         2.3118         0.6834
 H         -2.5783         0.2664         1.2818
 H         -2.4774         -1.0104         -1.4074
 H         -3.2369         -1.5934         0.0844
 H         -5.2419         -0.7796         -0.6152
 H         -4.4634         -0.1258         -2.133
 H         -5.1545         1.2664         0.4355
 H         -4.9009         1.9586         -1.2414
 H         -0.3801         -1.3527         0.3926
 H         1.4533         0.632         -1.0287
 H         2.0777         -1.4272         1.1578
 H         1.9668         0.3896         1.3119
 H         3.7061         0.6486         -0.424
 H         3.8637         -1.1782         -0.5464
 H         3.6778         1.5803         2.4248
 H         4.6488         0.6388         3.6564
 H         5.4742         1.7018         2.4729
 H         2.9641         -2.4514         -2.6879
