44

N   -1.2731214   -1.3870890   -0.6194895
C   -0.8466348   -1.5473166   0.7537871
C   0.5161458   -2.2590994   0.9208338
C   1.5278974   -1.8826049   -0.1095936
C   2.2940128   -0.6699526   -0.2396183
C   2.4249774   0.4919221   0.5306328
C   3.2820236   1.4847852   0.1015244
C   4.0228345   1.3500010   -1.0808362
C   3.9267974   0.2122311   -1.8560453
C   3.0623333   -0.7876708   -1.4226272
N   2.7773962   -2.0065688   -1.9760479
C   1.8614957   -2.6549546   -1.1879722
C   -0.8476707   -0.2029455   1.4788323
O   -0.0647373   0.0015015   2.3926498
N   -1.6986745   0.7779486   1.0804758
C   -2.8342927   0.8574079   0.1751385
C   -2.3994268   1.9092522   -0.8305279
C   -1.5921377   2.8918682   0.0380215
C   -1.3736063   2.1637741   1.3803832
C   -3.5047513   -0.3634775   -0.3909462
O   -3.9592089   -0.4212564   -1.5011898
O   -3.8231327   -1.2612010   0.5674035
H   -0.5158451   -1.0030316   -1.1727059
H   -1.5120019   -2.2779232   -1.0341285
H   -1.6018083   -2.1501556   1.2652910
H   0.3371583   -3.3347451   0.8440742
H   0.8828696   -2.0583279   1.9277937
H   1.8635984   0.5969722   1.4493441
H   3.3920463   2.3854691   0.6932436
H   4.6866685   2.1487277   -1.3883636
H   4.5058407   0.1023056   -2.7654208
H   3.1950104   -2.3793598   -2.8069170
H   1.5110771   -3.6414603   -1.4500297
H   -3.6473081   1.2965140   0.7804351
H   -3.2481471   2.3687360   -1.3334391
H   -1.7783526   1.4348859   -1.5906925
H   -0.6366660   3.1319510   -0.4274923
H   -2.1269891   3.8298122   0.1881561
H   -2.0427047   2.5514448   2.1551973
H   -0.3573528   2.2171924   1.7597648
H   -4.3856127   -1.9158620   0.1371010
C   1.7312869852786164   0.4704964069133563   4.488918042372328
O   2.1381325677420193   -0.6028761355227736   4.380488077998026
O   1.3244414028152127   1.5438689493494862   4.597348006746629
