46

N   -1.3696277   -1.8593845   -0.4862594
C   -1.3416319   -0.4429663   -0.7742763
C   -1.8950269   0.3495833   0.4104772
C   -3.3143080   -0.0214512   0.8102025
C   -4.3383443   0.1956192   -0.2911988
C   -5.7716786   0.0362730   0.1873472
N   -6.1125635   1.0600757   1.1657769
C   -0.0007204   0.1772772   -1.1641828
O   0.0599467   1.2843932   -1.6710068
N   1.0969747   -0.5563719   -0.8861232
C   2.4159942   -0.1040242   -1.2311023
C   2.9493165   0.9319726   -0.2096974
C   4.1738861   1.6794520   -0.7108879
C   3.1092777   0.3845637   1.2094753
C   4.3285149   -0.4850576   1.4794889
C   3.2680613   -1.3348068   -1.4169551
O   2.9380797   -2.4475301   -1.0944433
O   4.4404788   -1.0717033   -2.0004640
H   -0.9316287   -2.0915737   0.3942938
H   -0.9781094   -2.4290496   -1.2216203
H   -1.9842406   -0.2590206   -1.6404595
H   -1.8400626   1.4091210   0.1508296
H   -1.2225666   0.2024650   1.2650103
H   -3.3483229   -1.0695133   1.1211140
H   -3.6034583   0.5759192   1.6777299
H   -4.1672686   -0.5105368   -1.1087423
H   -4.2145276   1.1987700   -0.7193354
H   -6.4406431   0.0267934   -0.6857648
H   -5.8783478   -0.9387644   0.6731977
H   -7.0324514   0.8978916   1.5517434
H   -6.1367576   1.9706050   0.7243605
H   1.0038203   -1.5100496   -0.5784929
H   2.3658561   0.4124705   -2.1954726
H   2.1276420   1.6530464   -0.1760464
H   4.4297326   2.4789535   -0.0124998
H   3.9765172   2.1373095   -1.6821544
H   5.0457442   1.0359681   -0.8199503
H   2.2007249   -0.1637648   1.4758434
H   3.1409099   1.2466159   1.8826794
H   4.3681197   -0.7574103   2.5356441
H   4.3112283   -1.4176453   0.9143230
H   5.2575138   0.0361321   1.2430708
H   4.9138468   -1.9105470   -2.0681720
C   2.1710611994290137   -5.033975396090447   -0.34478781238357004
O   1.1715786970856292   -4.621521738950374   0.055619115904623706
O   3.1705437017723983   -5.44642905323052   -0.7451947406717638
