34

N   -2.6024546   -1.1188665   0.0885216
C   -2.1836202   -0.3224485   -1.0365749
C   -2.9835265   0.9649353   -0.8245206
C   -2.9466636   1.1390013   0.6921413
C   -2.9655541   -0.2944302   1.2362073
C   -0.6979139   0.0054534   -1.1578915
O   -0.2249060   0.4864552   -2.1695304
N   0.0640773   -0.2436636   -0.0654106
C   1.4777173   -0.0000929   -0.0962461
C   2.0550277   -0.1730388   1.3121062
C   3.3517183   0.5388335   1.6778604
O   3.5947278   0.7495208   2.8488140
N   4.1643087   0.9119669   0.6707613
C   2.1994280   -0.8856046   -1.0994437
O   3.2603699   -0.5989809   -1.5941690
O   1.5818172   -2.0407768   -1.3358542
H   -2.1091825   -1.9772667   0.2632545
H   -2.4493606   -0.7976740   -1.9845432
H   -2.5633228   1.8059866   -1.3733465
H   -4.0052636   0.8009638   -1.1704803
H   -2.0229934   1.6417644   0.9848784
H   -3.7767490   1.7360970   1.0677502
H   -3.9587260   -0.5721856   1.6031643
H   -2.2751143   -0.4000317   2.0823892
H   -0.3425028   -0.7376818   0.7086238
H   1.6481400   1.0207468   -0.4460150
H   2.1891467   -1.2331065   1.5478403
H   1.3243927   0.2111474   2.0253809
H   4.0311924   0.5801118   -0.2756671
H   5.0432525   1.3251430   0.9292088
H   2.1227374   -2.5223780   -1.9744094
C   0.8643097931939259   1.5940788932083076   -4.49907514309907
O   -0.1738135436999957   1.5619336249163818   -4.9997503063762885
O   1.9024331300878476   1.6262241615002333   -3.9983999798218512
