  42

 N         1.3738         0.5294         -1.1869
 C         1.515         -0.7925         -0.6193
 C         2.2688         -0.6308         0.699
 C         3.5974         -0.0372         0.5257
 C         3.8062         1.3279         0.5735
 C         5.0472         1.8653         0.4101
 C         6.1392         1.0507         0.1903
 C         5.9501         -0.3215         0.139
 C         4.6842         -0.8583         0.3063
 C         0.156         -1.2645         -0.2613
 O         0.0717         -2.4047         0.2464
 N         -1.0241         -0.5056         -0.4611
 C         -2.3473         -0.9633         -0.1132
 C         -2.9983         -0.19         0.9706
 C         -4.3743         -0.7412         1.2625
 C         -3.0589         1.2755         0.8534
 C         -3.7722         1.8358         -0.3249
 C         -3.2076         -1.1736         -1.3099
 O         -2.83         -0.9719         -2.4928
 O         -4.5157         -1.619         -1.1731
 H         0.8195         0.4446         -2.0836
 H         2.2821         0.9953         -1.3322
 H         2.0092         -1.5081         -1.275
 H         1.637         0.0114         1.3458
 H         2.3303         -1.6142         1.2141
 H         2.9667         1.9873         0.7444
 H         5.2454         2.9293         0.442
 H         7.1424         1.4465         0.0557
 H         6.7801         -0.989         -0.0309
 H         4.547         -1.9118         0.2657
 H         -0.8594         0.4545         -0.8988
 H         -2.2046         -1.9853         0.3155
 H         -2.4047         -0.4063         1.9102
 H         -5.0933         -0.2385         0.6197
 H         -4.3961         -1.8547         1.2042
 H         -4.6261         -0.4977         2.3167
 H         -2.0491         1.7627         1.0103
 H         -3.6354         1.6325         1.7636
 H         -3.0847         2.2768         -1.0912
 H         -4.4288         2.7098         -0.0336
 H         -4.4494         1.0976         -0.7622
 H         -5.0092         -2.1532         -1.8766
