  41

 N         1.6575         0.647         -1.3884
 C         1.6195         -0.1674         -0.2517
 C         1.8744         0.5885         1.0376
 C         3.2272         1.2518         1.0425
 C         4.3596         0.2826         0.8945
 C         3.3322         2.3542         0.0125
 C         0.3829         -0.9529         -0.0643
 O         0.2639         -1.7039         0.9197
 N         -0.6956         -0.8763         -0.9902
 C         -1.9161         -1.6186         -0.8524
 C         -3.0925         -0.713         -0.8379
 C         -3.1616         0.2971         0.2448
 C         -3.156         -0.326         1.6302
 C         -2.1667         1.4094         0.085
 C         -2.0385         -2.6256         -1.9542
 O         -1.1662         -2.7492         -2.8353
 O         -3.1833         -3.421         -1.9433
 H         2.2033         0.3673         -2.1878
 H         1.1079         1.4897         -1.4199
 H         2.4572         -0.922         -0.3228
 H         1.1179         1.38         1.2117
 H         1.8378         -0.0958         1.9069
 H         3.3391         1.7408         2.0363
 H         4.7524         0.3394         -0.1445
 H         3.97         -0.7454         1.0965
 H         5.1737         0.4417         1.6468
 H         2.4424         2.9842         -0.0299
 H         3.6297         1.9228         -0.9732
 H         4.1906         3.0216         0.3021
 H         -0.5506         -0.2434         -1.8025
 H         -1.8118         -2.1952         0.1158
 H         -3.2248         -0.1719         -1.8106
 H         -4.0213         -1.3516         -0.7686
 H         -4.1904         0.7905         0.146
 H         -3.667         -1.3084         1.5514
 H         -2.0991         -0.4259         1.964
 H         -3.7496         0.3205         2.3116
 H         -2.62         2.405         0.344
 H         -1.8999         1.5012         -0.9846
 H         -1.2752         1.2327         0.7059
 H         -3.2534         -4.1546         -2.662
