50

N   -0.7314817   1.8101323   -1.5581628
C   -0.7954367   0.7277156   -0.6053443
C   -2.0449583   -0.1259213   -0.8293187
C   -3.3321652   0.6292697   -0.5525479
C   -4.5707696   -0.1877749   -0.8769030
C   -5.8668609   0.5031725   -0.4879740
N   -5.9583588   0.6596810   0.9574072
C   0.4254808   -0.1809319   -0.6585676
O   1.0508707   -0.3742509   -1.6921257
N   0.7719696   -0.7548248   0.5169969
C   1.7438098   -1.8070355   0.5957831
C   2.7846797   -1.5849933   1.6983088
C   3.5490884   -0.2717023   1.6053772
C   4.3050505   -0.0513780   0.2876135
N   3.5986957   0.7178803   -0.7034119
C   3.4208002   2.0686964   -0.5363728
N   3.9599421   2.8381851   0.3302862
N   2.5236929   2.6162323   -1.4472900
C   1.0471816   -3.1328497   0.8288908
O   -0.0791281   -3.2560448   1.2247401
O   1.8561423   -4.1689975   0.5750529
H   0.1142762   2.3472364   -1.3950463
H   -0.6272191   1.4123885   -2.4849448
H   -0.8507655   1.1629587   0.3995460
H   -2.0269173   -0.4839674   -1.8655576
H   -1.9952053   -1.0188049   -0.1968085
H   -3.3353544   1.5539685   -1.1353065
H   -3.3673105   0.9246367   0.4996656
H   -4.5201007   -1.1584130   -0.3668110
H   -4.5970792   -0.4114193   -1.9485953
H   -5.8852455   1.5025094   -0.9336091
H   -6.7126733   -0.0505050   -0.9217330
H   -6.7625229   1.2174753   1.2095755
H   -6.0777572   -0.2427294   1.3999170
H   0.1328609   -0.6599429   1.2891287
H   2.2338661   -1.8565861   -0.3781084
H   2.2824301   -1.6401276   2.6700538
H   3.4842932   -2.4238757   1.6629168
H   2.8731443   0.5723884   1.7600959
H   4.2582760   -0.2524135   2.4373838
H   5.2546212   0.4506949   0.4885223
H   4.5698746   -1.0122239   -0.1625336
H   2.8619839   0.2434637   -1.2118035
H   4.5221613   2.3221802   0.9951276
H   2.5274928   2.1815872   -2.3567848
H   2.6241836   3.6179542   -1.4890486
H   1.3604418   -4.9727936   0.7756199
C   -2.7067760453409275   -3.543455404198003   2.14824506476204
O   -2.8282273809745857   -2.3969250260158335   2.1594996184294217
O   -2.585324709707269   -4.689985782380172   2.1369905110946585
