44

N   2.9960250   0.7238733   -2.3822178
C   2.5885859   0.1655156   -1.1084530
C   3.3267822   0.8552385   0.0378453
C   4.8280565   0.6675594   -0.0522574
C   5.5456286   1.2830784   1.1295444
O   5.0635539   1.3244393   2.2425426
N   6.7876001   1.7580133   0.8626404
C   1.0877503   0.3154699   -0.8676535
O   0.4551641   1.2449970   -1.3398976
N   0.5240664   -0.6160069   -0.0728183
C   -0.8547257   -0.5336081   0.3253421
C   -1.7919124   -1.0521177   -0.7896464
C   -3.2448180   -0.7824212   -0.5501166
C   -4.1239264   -1.7952371   -0.1824667
C   -5.4624031   -1.5401116   0.0592054
C   -5.9477267   -0.2449651   -0.0627699
O   -7.2653971   -0.0371528   0.1846753
C   -5.0853010   0.7804082   -0.4334834
C   -3.7498339   0.5073919   -0.6749785
C   -1.0136302   -1.3526486   1.5815892
O   -0.2897173   -2.2666102   1.8819366
O   -2.0617286   -0.9741661   2.3099375
H   2.5087723   1.6069980   -2.4994929
H   2.6734834   0.1336523   -3.1383093
H   2.8479750   -0.8991479   -1.0988113
H   2.9751474   0.4801891   1.0004842
H   3.0823587   1.9216431   0.0133914
H   5.2007019   1.0611553   -0.9991707
H   5.0687481   -0.4020414   -0.0423469
H   7.1639187   1.7649595   -0.0656373
H   7.3214714   2.1566005   1.6140711
H   1.0652327   -1.3704070   0.3183641
H   -1.1086223   0.5075592   0.5316583
H   -1.4603372   -0.5462414   -1.6981889
H   -1.6120759   -2.1216241   -0.9226749
H   -3.7545515   -2.8105030   -0.0843048
H   -6.1435529   -2.3328801   0.3408119
H   -7.4675697   0.8921332   0.0626483
H   -5.4610407   1.7933708   -0.5382442
H   -3.0869851   1.3137473   -0.9705490
H   -2.1252669   -1.5800028   3.0594014
C   1.3938195067256394   -4.392125567296061   2.580426574007023
O   2.0232919139173178   -4.204982611930124   1.6327182840563563
O   0.7643470995339604   -4.579268522661997   3.528134863957689
