41

N   0.8262315   -1.5161701   1.0911740
C   0.5458529   -0.1075446   0.9889816
C   1.2724434   0.4951980   -0.2216999
C   2.7630214   0.4998592   -0.0701218
C   3.5555405   -0.5150449   -0.5884876
C   4.9309475   -0.5140535   -0.4169271
C   5.5407686   0.5149124   0.2884428
O   6.8821698   0.5707650   0.4886154
C   4.7648712   1.5409194   0.8136734
C   3.3943995   1.5248628   0.6301637
C   -0.9198259   0.3242601   0.9317483
O   -1.2274415   1.5109135   0.9721166
N   -1.8283702   -0.6556316   0.8269926
C   -3.2504918   -0.3999075   0.8298928
C   -3.7582381   0.1634697   -0.4578284
C   -4.6117147   -0.2842599   -1.4301366
N   -4.7103760   0.6355178   -2.4352151
C   -3.9275620   1.6244865   -2.0797747
N   -3.3352810   1.3921177   -0.8879928
C   -3.9378247   -1.7049197   1.1744949
O   -3.3725204   -2.7633072   1.2370048
O   -5.2351853   -1.5415004   1.4159929
H   0.5745299   -2.0406593   0.2660182
H   0.4493533   -1.9559039   1.9165594
H   0.9401136   0.3840304   1.8843410
H   0.9041600   1.5132224   -0.3537041
H   0.9827684   -0.0706252   -1.1138650
H   3.0933280   -1.3267890   -1.1381581
H   5.5317801   -1.3168363   -0.8327110
H   7.2948172   -0.1902490   0.0765585
H   5.2498738   2.3430326   1.3551406
H   2.7980131   2.3336881   1.0394742
H   -1.5431563   -1.6223016   0.8291001
H   -3.4693648   0.3113128   1.6358653
H   -5.1690672   -1.2073749   -1.4529952
H   -3.7568755   2.5270007   -2.6456487
H   -2.6394204   1.9343991   -0.3899727
H   -5.6024678   -2.4106894   1.6213879
C   -1.9296793857337122   4.219856007189883   1.0642710604456478
O   -0.8157661660538365   4.505801395860928   1.1469848665494515
O   -3.043592605413588   3.9339106185188384   0.9815572543418442
