  42

 N         2.5502         -1.4978         0.7277
 C         2.321         -0.0776         0.9646
 C         3.1631         0.6597         -0.0715
 C         4.6047         0.2577         0.1714
 C         5.0547         0.6358         1.5654
 C         5.5271         0.8233         -0.8625
 C         0.9032         0.2798         0.8764
 O         0.5796         1.479         1.0635
 N         -0.097         -0.6834         0.5889
 C         -1.5053         -0.2892         0.5087
 C         -2.028         -0.4976         -0.8883
 C         -3.4531         -0.1202         -1.041
 C         -3.8161         1.1816         -1.3809
 C         -5.1332         1.5588         -1.5339
 C         -6.1529         0.6483         -1.3533
 C         -5.8025         -0.6423         -1.0168
 C         -4.4813         -1.0217         -0.8632
 C         -2.2777         -0.9655         1.5509
 O         -1.6973         -1.775         2.3517
 O         -3.637         -0.7993         1.7557
 H         2.3383         -1.7679         -0.2411
 H         2.0365         -2.0464         1.4517
 H         2.772         0.1507         1.9537
 H         3.0662         1.7391         0.0498
 H         2.8959         0.387         -1.0972
 H         4.6594         -0.8586         0.1038
 H         4.5323         1.5821         1.8312
 H         4.7998         -0.1769         2.2467
 H         6.1545         0.7677         1.5282
 H         6.5053         1.0429         -0.3493
 H         5.1459         1.7936         -1.2481
 H         5.7124         0.0901         -1.6484
 H         0.2103         -1.66         0.4413
 H         -1.5823         0.8145         0.7063
 H         -1.846         -1.5606         -1.1773
 H         -1.3713         0.1041         -1.5635
 H         -3.0302         1.8927         -1.5224
 H         -5.4066         2.5658         -1.7966
 H         -7.1991         0.942         -1.4733
 H         -6.6041         -1.3539         -0.8758
 H         -4.2467         -2.0466         -0.6009
 H         -4.1648         -1.5561         2.2066
