  36

 N         2.4349         -1.142         0.6821
 C         2.18         0.2611         0.5243
 C         2.9102         0.8925         -0.616
 C         4.394         0.7124         -0.374
 C         5.221         1.3029         -1.4426
 O         5.3899         0.698         -2.5199
 O         5.8114         2.5292         -1.2527
 C         0.7121         0.5558         0.5061
 O         0.2664         1.7161         0.363
 N         -0.1815         -0.5237         0.6567
 C         -1.6362         -0.3756         0.6561
 C         -2.2779         -1.2289         -0.3748
 C         -3.7584         -1.1675         -0.4813
 C         -4.3157         0.1594         -0.7936
 O         -3.5647         1.1362         -0.9506
 N         -5.7091         0.3166         -0.9143
 C         -2.065         -0.7038         2.0396
 O         -1.2981         -1.0568         2.9556
 O         -3.4133         -0.6117         2.3425
 H         2.964         -1.5541         -0.094
 H         2.7906         -1.4001         1.6215
 H         2.5632         0.7596         1.464
 H         2.6202         1.9313         -0.7443
 H         2.6669         0.3501         -1.5542
 H         4.7103         1.1591         0.5905
 H         4.6274         -0.3881         -0.2703
 H         6.1152         3.1025         -2.0076
 H         0.1825         -1.4938         0.7776
 H         -1.8151         0.705         0.5044
 H         -1.9865         -2.2967         -0.2939
 H         -1.8701         -0.9082         -1.3783
 H         -4.1143         -1.9314         -1.2532
 H         -4.2962         -1.5263         0.445
 H         -6.259         -0.4311         -1.4328
 H         -6.2443         1.1165         -0.5313
 H         -3.7548         -0.6646         3.2876
