  40

 N         0.3618         1.6014         -0.7347
 C         0.302         0.2346         -0.3147
 C         1.2333         -0.0759         0.8279
 C         2.6691         0.1754         0.5174
 C         3.1969         -0.6351         -0.6367
 N         4.5876         -0.281         -0.81
 C         5.5435         -0.6421         0.178
 N         5.3132         -1.6704         0.8976
 N         6.7416         0.1299         0.3648
 C         -1.0984         -0.0271         0.1933
 O         -1.4133         -1.1614         0.6199
 N         -2.0768         0.996         0.198
 C         -3.4122         0.7791         0.6854
 C         -4.3669         0.2365         -0.2681
 C         -5.6853         0.6523         -0.4939
 N         -6.2553         -0.0771         -1.4432
 C         -5.3404         -0.9632         -1.8464
 N         -4.2061         -0.7809         -1.1463
 C         -3.4667         0.1614         2.047
 O         -2.3842         -0.0286         2.6394
 O         -4.6214         -0.2023         2.671
 H         1.0516         2.1213         -0.1838
 H         0.5825         1.6061         -1.7694
 H         0.4845         -0.5043         -1.1103
 H         1.0572         -1.1201         1.141
 H         0.951         0.5662         1.6867
 H         3.2585         -0.1056         1.416
 H         2.8378         1.2591         0.3532
 H         3.0779         -1.7231         -0.4637
 H         2.6764         -0.4255         -1.5869
 H         4.8936         0.2428         -1.6637
 H         4.5061         -2.2932         0.8596
 H         7.2918         -0.0195         1.2174
 H         7.0381         0.8188         -0.3471
 H         -1.7699         1.952         -0.1851
 H         -3.7804         1.8454         0.9451
 H         -6.1787         1.4589         0.0315
 H         -5.5489         -1.7013         -2.6348
 H         -3.3591         -1.3681         -1.3018
 H         -4.692         -1.0314         3.271
