38

N   -4.2387099   -0.6142385   0.7145767
C   -3.8125599   0.6687653   0.1902052
C   -3.8510232   1.7380942   1.2702592
S   -2.8948231   1.2086101   2.7288687
C   -2.3980676   0.6160257   -0.3877154
O   -1.9466695   1.5638386   -1.0068449
N   -1.7295122   -0.5245223   -0.1576525
C   -0.3456383   -0.6576145   -0.5133233
C   0.5639396   0.0203866   0.5364704
C   2.0128530   0.0461718   0.1621985
C   2.9276229   -0.8281542   0.7400143
C   4.2622092   -0.8268205   0.3733678
C   4.7077659   0.0630490   -0.5947022
O   6.0237687   0.0320319   -0.9258817
C   3.8097500   0.9471168   -1.1813498
C   2.4783944   0.9339580   -0.8016626
C   -0.0222300   -2.1276186   -0.6100981
O   -0.5307083   -2.9758817   0.0741225
O   0.9222207   -2.3831709   -1.5174467
H   -4.5495589   -1.2349031   -0.0192323
H   -4.9911021   -0.5138560   1.3809978
H   -4.4396317   1.0399003   -0.6316448
H   -4.8850267   1.9353951   1.5589776
H   -3.4131876   2.6461809   0.8614482
H   -2.7432494   2.4386531   3.2393630
H   -2.1481043   -1.1978151   0.4692835
H   -0.1839815   -0.1782397   -1.4789208
H   0.4180574   -0.4887622   1.4916008
H   0.1769107   1.0349542   0.6468794
H   2.5886991   -1.5262704   1.4979970
H   4.9709720   -1.5056896   0.8301899
H   6.1961326   0.6952065   -1.5965210
H   4.1542083   1.6499744   -1.9334995
H   1.7868966   1.6310580   -1.2628813
H   1.1230828   -3.3261130   -1.4616437
C   -0.9096389878301476   3.74131984577439   -2.429217263739378
O   -1.8963248095822118   4.315925854006327   -2.268942423364438
O   0.07704683392191647   3.166713837542452   -2.5894921041143175
