  34

 N         -2.2558         -0.2979         -2.8368
 C         -2.0268         0.3805         -1.5738
 C         -3.1856         0.1532         -0.6654
 C         -3.8004         1.1224         0.0985
 N         -4.8178         0.5372         0.796
 C         -4.8381         -0.7692         0.4749
 N         -3.8459         -0.9884         -0.4099
 C         -0.764         -0.1002         -1.0063
 O         -0.0697         -0.9616         -1.6041
 N         -0.2407         0.3639         0.2396
 C         1.021         -0.1271         0.7907
 C         1.9523         1.0369         0.8672
 C         3.3125         0.7013         1.4186
 S         4.1559         -0.5445         0.4129
 C         4.566         0.057         -1.2321
 C         0.7979         -0.7799         2.1004
 O         -0.3664         -0.8566         2.614
 O         1.8287         -1.3401         2.837
 H         -1.3307         -0.3455         -3.3122
 H         -2.5733         -1.2776         -2.5911
 H         -1.9781         1.4744         -1.8489
 H         -3.5277         2.1704         0.1425
 H         -5.5209         -1.5183         0.8509
 H         -3.6365         -1.911         -0.8237
 H         -0.7987         1.0767         0.7505
 H         1.4624         -0.8797         0.1063
 H         2.1171         1.5151         -0.1198
 H         1.5234         1.8544         1.5085
 H         3.957         1.6282         1.3768
 H         3.33         0.3941         2.4629
 H         5.6111         -0.2218         -1.5119
 H         3.9212         -0.4875         -1.9798
 H         4.3917         1.1333         -1.3592
 H         1.6288         -2.1921         3.3693
