  40

 N         -1.7276         0.7263         -2.2839
 C         -1.3489         0.512         -0.9065
 C         -2.1633         -0.5787         -0.2548
 C         -3.5988         -0.297         -0.2398
 C         -4.4673         -0.6649         -1.2306
 C         -5.8264         -0.3858         -1.1939
 C         -6.3457         0.29         -0.1237
 C         -5.4916         0.6795         0.902
 C         -4.1387         0.3921         0.848
 C         0.1055         0.2094         -0.8765
 O         0.8042         0.1718         -1.9472
 N         0.8146         -0.0559         0.323
 C         2.2531         -0.3532         0.3329
 C         2.9016         0.7308         1.1369
 C         4.3763         0.6348         1.2862
 C         5.1204         0.6857         0.0083
 O         4.5875         0.8581         -1.1046
 N         6.5573         0.5283         0.0323
 C         2.4983         -1.7055         0.9017
 O         1.5695         -2.453         1.3047
 O         3.7904         -2.1985         1.009
 H         -2.0475         -0.1463         -2.7557
 H         -1.0505         1.2694         -2.823
 H         -1.5826         1.4558         -0.3605
 H         -1.8267         -0.7173         0.7927
 H         -1.9359         -1.5555         -0.7647
 H         -4.0955         -1.1921         -2.0766
 H         -6.4595         -0.7006         -2.0028
 H         -7.4039         0.5365         -0.0411
 H         -5.9269         1.2221         1.755
 H         -3.5165         0.7082         1.6552
 H         0.2819         -0.0351         1.2188
 H         2.6653         -0.3364         -0.6886
 H         2.3955         0.8         2.1271
 H         2.688         1.6945         0.5918
 H         4.6929         1.5365         1.8874
 H         4.6949         -0.2327         1.9159
 H         7.0254         -0.1967         0.6168
 H         7.1122         1.1763         -0.5649
 H         4.0187         -3.0127         1.5937
