  24

 N         -1.6472         -1.9832         -0.6071
 C         -1.9604         -0.5884         -0.6471
 C         -2.958         -0.1972         0.4448
 S         -3.2971         1.5803         0.321
 C         -0.7382         0.2567         -0.3948
 O         -0.8133         1.5115         -0.3902
 N         0.5371         -0.3296         -0.1543
 C         1.6955         0.5333         0.0857
 C         2.256         0.2861         1.471
 C         2.7         0.308         -0.9784
 O         2.562         -0.4969         -1.9246
 O         3.8859         1.0444         -0.9248
 H         -1.7045         -2.3639         -1.598
 H         -2.2851         -2.5045         0.0336
 H         -2.438         -0.3118         -1.6094
 H         -3.8861         -0.7812         0.2752
 H         -2.528         -0.4565         1.4331
 H         -2.9376         2.2373         1.5117
 H         0.6202         -1.3686         -0.154
 H         1.4056         1.6022         0.0454
 H         2.1167         -0.763         1.8058
 H         1.6928         0.9337         2.1974
 H         3.3105         0.597         1.5396
 H         4.4114         1.2544         -1.7819
