33

N   3.5519728   1.4967433   1.1713510
C   2.5388922   1.1204070   0.2137443
C   3.1064057   0.0126584   -0.6948275
O   2.2182878   -0.4063660   -1.7008877
C   1.2661712   0.5978534   0.8611171
O   1.2479130   0.1369238   1.9870149
N   0.1655317   0.6105522   0.0617858
C   -0.9515024   -0.2350988   0.3926576
C   -2.0867092   -0.0243541   -0.6211590
C   -3.2317193   -1.0072371   -0.4309730
C   -2.5932377   1.4087097   -0.5392298
C   -0.4886599   -1.6835176   0.4174808
O   0.3536427   -2.1439439   -0.3140670
O   -1.1293702   -2.4158873   1.3239433
H   3.5088396   0.8462208   1.9489224
H   3.3442129   2.4060297   1.5614690
H   2.2987362   1.9761582   -0.4236567
H   3.9983234   0.4177857   -1.1735689
H   3.4208440   -0.8253800   -0.0614443
H   1.6420690   -1.0928166   -1.3380697
H   0.3555841   0.7403446   -0.9217276
H   -1.3041923   0.0127441   1.3955567
H   -1.6551199   -0.1913222   -1.6162254
H   -2.9270246   -2.0407534   -0.5972501
H   -3.6434133   -0.9382740   0.5785604
H   -4.0329676   -0.7805579   -1.1357517
H   -3.3455232   1.5888848   -1.3087944
H   -1.7912747   2.1351556   -0.6687085
H   -3.0580074   1.5925634   0.4328808
H   -0.7787043   -3.3142257   1.2686572
C   1.2058963644856135   -0.9237892495334589   4.577984299450615
O   2.321167403205888   -0.6598430385111939   4.7041267105532665
O   0.09062532576533933   -1.1877354605557238   4.451841888347963
