38

N   -4.3491021   -0.7368639   0.9664181
C   -3.1978756   -0.9375144   0.1144239
C   -3.6618179   -1.0383567   -1.3350031
O   -2.6685066   -1.5266593   -2.2172580
C   -2.1031146   0.1128247   0.3595080
O   -2.0886921   0.7598416   1.3924002
N   -1.1644631   0.2273220   -0.6021694
C   -0.1072369   1.1947694   -0.5152939
C   1.2615929   0.5638768   -0.2278812
C   1.2937527   -0.1658289   1.1048500
C   2.6069428   -0.8830563   1.3816847
C   3.7937298   0.0407043   1.5844998
N   4.9757126   -0.7275116   1.9472340
C   -0.0483270   1.9857768   -1.8008789
O   -0.5899954   1.6817341   -2.8279467
O   0.7225362   3.0761541   -1.6764241
H   -4.0130408   -0.4445557   1.8777097
H   -4.8837976   0.0540633   0.6237424
H   -2.7448547   -1.9038466   0.3797195
H   -3.9358290   -0.0498828   -1.7121603
H   -4.5573194   -1.6662917   -1.3584755
H   -2.5354151   -2.4593507   -2.0402721
H   -1.3053341   -0.2680449   -1.4737038
H   -0.3573143   1.8759576   0.3017756
H   2.0108535   1.3569669   -0.2529628
H   1.5053032   -0.1326620   -1.0384999
H   1.0814626   0.5441271   1.9108662
H   0.4798506   -0.8944382   1.1270069
H   2.5063132   -1.4995315   2.2785592
H   2.8256152   -1.5737898   0.5571393
H   3.9378489   0.6646317   0.6900458
H   3.5703203   0.7251971   2.4091627
H   5.2369663   -1.3461673   1.1897979
H   5.7654300   -0.1168465   2.1077946
H   0.7379054   3.5072514   -2.5398086
C   -1.8535747216876546   0.9724771659974203   -5.223843588301461
O   -2.3058564971382345   0.04436382878687528   -4.710564104114556
O   -1.4012929462370742   1.9005905032079655   -5.737123072488366
