42

N   -0.1960142   0.8050891   -1.9887001
C   -0.0049260   -0.4370570   -1.2583377
C   0.7870701   -0.1988414   0.0243629
C   2.2186032   0.2522880   -0.2079164
C   2.9926001   0.3439525   1.0995608
N   4.3606976   0.7832793   0.9529005
C   5.3050154   -0.0828523   0.4565160
N   5.0203897   -1.3063175   0.2320743
N   6.5261056   0.5451161   0.2295619
C   -1.3418066   -1.0564633   -0.8727964
O   -1.4348223   -2.2249551   -0.5344586
N   -2.3856966   -0.2096507   -0.8937894
C   -3.7013510   -0.6495319   -0.5451683
C   -3.8874528   -0.8226446   0.9574922
C   -3.8245304   0.4785134   1.6972043
O   -3.8501481   1.5678889   1.1900817
O   -3.7524532   0.2974009   3.0240455
C   -4.7121159   0.2762986   -1.1847548
O   -4.4645698   1.0852307   -2.0327089
O   -5.9507716   0.0395950   -0.7296687
H   -0.4695813   0.6293294   -2.9461111
H   0.6585736   1.3419041   -2.0156163
H   0.5165623   -1.2116796   -1.8357833
H   0.2517097   0.5393302   0.6326404
H   0.7903742   -1.1383943   0.5822671
H   2.7351792   -0.4545499   -0.8618617
H   2.2459247   1.2341017   -0.6954133
H   3.0183191   -0.6388733   1.5715953
H   2.4917416   1.0304978   1.7880127
H   4.4860046   1.7421967   0.6742902
H   5.8448421   -1.8370665   -0.0234905
H   7.2800454   -0.0900649   0.0299895
H   6.7818352   1.2295405   0.9241555
H   -2.2329043   0.7349559   -1.2176677
H   -3.8613263   -1.6386180   -0.9918428
H   -4.8497342   -1.2892304   1.1791534
H   -3.1161437   -1.4984499   1.3293339
H   -3.7389910   1.1754286   3.4247074
H   -6.5362540   0.6532028   -1.1894597
C   -3.9098281371562624   4.105742427721896   0.008668239354427731
O   -3.9677021228347433   3.6186377866036104   -1.034782128599273
O   -3.851954151477781   4.592847068840182   1.0521186073081286
