  35

 N         2.5076         1.2946         -0.7757
 C         2.8438         -0.0925         -0.5465
 C         3.6993         -0.2865         0.6724
 C         3.0664         0.1749         1.9142
 O         2.1126         -0.508         2.381
 O         3.4369         1.3087         2.6177
 C         1.6295         -0.909         -0.435
 O         1.6568         -2.1422         -0.2238
 N         0.3591         -0.2927         -0.5693
 C         -0.8847         -1.0387         -0.4698
 C         -1.7271         -0.4588         0.6437
 C         -3.0309         -1.1957         0.7871
 C         -1.8584         1.0167         0.6107
 C         -2.4748         1.6195         -0.5965
 C         -1.5325         -0.9905         -1.7957
 O         -1.0734         -0.3924         -2.7995
 O         -2.7423         -1.6536         -1.9598
 H         3.3091         1.9362         -0.608
 H         1.9911         1.4593         -1.6393
 H         3.419         -0.445         -1.4269
 H         4.6577         0.2707         0.5627
 H         3.9657         -1.3507         0.7791
 H         2.7841         1.8769         3.1429
 H         0.3077         0.7248         -0.7462
 H         -0.6726         -2.126         -0.2756
 H         -1.1478         -0.697         1.5875
 H         -3.4921         -1.1066         1.7672
 H         -2.9351         -2.2737         0.5458
 H         -3.7122         -0.7789         -0.0135
 H         -2.4239         1.414         1.5057
 H         -0.8241         1.4431         0.7772
 H         -1.637         2.0172         -1.2444
 H         -3.0618         2.5289         -0.3305
 H         -3.0563         0.9605         -1.2352
 H         -3.4593         -1.3075         -2.6039
