29

N   -0.8277908   -2.3682991   -0.4096173
C   -0.3097910   -1.0211117   -0.3145857
C   -1.4155552   -0.0625025   0.1338719
C   -2.5566816   -0.0188958   -0.8734532
C   -3.7035356   0.8340908   -0.4259642
O   -4.1410271   1.7868973   -1.0128132
O   -4.2223896   0.4135472   0.7438352
C   0.8436980   -0.9149850   0.6816379
O   0.9131745   -1.6363048   1.6597966
N   1.7519455   0.0499203   0.4311597
C   2.8378876   0.3055349   1.3266376
C   3.6804802   1.4192039   0.7771645
O   3.4617638   1.9956253   -0.2545163
O   4.7117147   1.6981876   1.5771457
H   -0.1889571   -2.9547260   -0.9300692
H   -0.8632183   -2.7558387   0.5279797
H   0.0397874   -0.7118134   -1.3056283
H   -0.9986025   0.9384933   0.2756846
H   -1.7877270   -0.3963840   1.1053739
H   -2.2186009   0.3728469   -1.8325799
H   -2.9154388   -1.0398062   -1.0264881
H   -4.9488536   1.0134561   0.9517255
H   1.7000343   0.6301975   -0.3908483
H   3.4646375   -0.5805090   1.4674915
H   2.4866289   0.5844726   2.3251400
H   5.2064170   2.4187029   1.1672197
C   2.9522146821736905   3.338528785363725   -2.658049101007798
O   2.021287723624365   2.6799818936500053   -2.828636290621497
O   3.883141640723016   3.9970756770774445   -2.4874619113940986
