  38

 N         3.4562         1.7154         0.0186
 C         2.3715         0.9435         -0.5575
 C         3.1253         -0.0989         -1.3599
 C         4.235         0.7265         -1.9786
 C         4.2416         2.0258         -1.1855
 C         1.5578         0.3078         0.5137
 O         1.8886         0.5047         1.7108
 N         0.4389         -0.5015         0.2654
 C         -0.2962         -1.0814         1.3845
 C         -1.7234         -0.5565         1.4229
 C         -2.4766         -0.8816         0.1799
 C         -3.8858         -0.4242         0.12
 C         -4.1167         1.042         0.2308
 N         -3.6721         1.6591         1.4378
 C         -0.2579         -2.5513         1.3221
 O         0.3486         -3.1158         0.3957
 O         -0.8908         -3.2976         2.2852
 H         4.0466         1.0323         0.553
 H         1.7366         1.56         -1.2333
 H         2.4818         -0.5858         -2.1113
 H         3.5939         -0.8216         -0.6618
 H         5.2146         0.2146         -1.9321
 H         3.9242         0.9773         -3.0191
 H         5.2399         2.3202         -0.8644
 H         3.6854         2.8168         -1.7207
 H         0.1317         -0.6896         -0.7041
 H         0.1639         -0.781         2.3492
 H         -2.1893         -0.9172         2.3436
 H         -1.5979         0.566         1.4659
 H         -1.9618         -0.5089         -0.7399
 H         -2.4859         -1.9979         0.0665
 H         -4.2689         -0.7198         -0.9031
 H         -4.5603         -1.0029         0.8097
 H         -5.2334         1.2017         0.1785
 H         -3.6867         1.6009         -0.6358
 H         -4.0827         2.5809         1.613
 H         -3.8108         1.0143         2.271
 H         -0.6849         -4.2766         2.4678
