  27

 N         -1.7301         0.3236         -0.8906
 C         -1.2863         0.7411         0.4002
 C         -2.3299         0.1725         1.3642
 C         -3.2764         -0.5437         0.4228
 C         -3.1841         0.4091         -0.764
 C         0.0073         0.0631         0.786
 O         0.161         -0.2553         1.9816
 N         0.9735         -0.1609         -0.2189
 C         2.2778         -0.6239         0.2307
 C         2.9712         -1.5251         -0.7509
 C         3.0694         0.712         0.2551
 O         2.4841         1.6966         -0.2224
 O         4.3074         0.7699         0.803
 H         -1.4261         1.0591         -1.6324
 H         -1.2265         1.8299         0.4333
 H         -2.8505         1.032         1.816
 H         -1.8794         -0.4998         2.0905
 H         -2.7741         -1.4841         0.0754
 H         -4.2859         -0.6669         0.78
 H         -3.4452         1.3938         -0.418
 H         -3.7045         0.0535         -1.661
 H         0.7622         -0.0014         -1.175
 H         2.2433         -1.0359         1.2466
 H         2.4266         -2.4786         -0.8317
 H         4.0115         -1.7074         -0.353
 H         3.0695         -1.0074         -1.7437
 H         4.634         1.7341         1.1323
