40

N   -2.0724402   1.6630341   0.3702338
C   -2.0101806   0.2842417   -0.0753240
C   -2.4887163   0.0245189   -1.5036128
C   -3.8974360   0.5543131   -1.7777603
C   -4.8872333   0.0814259   -0.7388796
O   -5.0896440   0.6995029   0.2904890
N   -5.5046007   -1.0929231   -1.0045634
C   -0.6179426   -0.3139240   0.1031992
O   -0.3119253   -1.3934167   -0.3801673
N   0.2200271   0.4276289   0.8445518
C   1.5408102   -0.0356894   1.1562761
C   2.5028613   0.1619804   -0.0288078
C   3.7374141   -0.7167112   0.0192644
C   4.6969153   -0.3856930   -1.1044399
O   4.8439150   0.7410338   -1.5296106
N   5.4137963   -1.4353031   -1.5765833
C   2.0141645   0.7094708   2.3795407
O   1.5082988   1.7069446   2.8152451
O   3.0990662   0.1457334   2.9306513
H   -1.7711510   2.2982553   -0.3580838
H   -3.0273598   1.8961787   0.6126470
H   -2.6451783   -0.2905105   0.6073432
H   -1.7966504   0.4996584   -2.2064461
H   -2.4289585   -1.0481002   -1.6936247
H   -3.9059449   1.6437081   -1.7382215
H   -4.2094681   0.2565892   -2.7814787
H   -6.1099258   -1.4871970   -0.3065281
H   -5.3027389   -1.6226194   -1.8308325
H   -0.1362618   1.2783460   1.2595228
H   1.4942417   -1.1044235   1.3887406
H   2.7957344   1.2101675   -0.1095677
H   1.9285840   -0.0818295   -0.9233289
H   3.4510393   -1.7716781   -0.0125889
H   4.2851676   -0.5663438   0.9534155
H   6.0776524   -1.2696766   -2.3117424
H   5.2486787   -2.3737021   -1.2675116
H   3.3553897   0.7068095   3.6735834
C   0.3894219980123545   -3.8674575087028433   -1.4879732597437418
O   -0.6629904214636748   -3.958913389035296   -1.9500045587757722
O   1.441834417488384   -3.7760016283703908   -1.0259419607117113
